/*---------------------------------------------------------------------------*\
  =========                 |
  \\      /  F ield         | OpenFOAM: The Open Source CFD Toolbox
   \\    /   O peration     | Website:  https://openfoam.org
    \\  /    A nd           | Version:  9
     \\/     M anipulation  |
\*---------------------------------------------------------------------------*/
Build  : 9-c96968adf6d8
Exec   : simpleFoam
Date   : Jan 23 2026
Time   : 03:57:22
Host   : "saksham"
PID    : 75673
I/O    : uncollated
Case   : /home/saksham/Documents/Projects/ml_cfd_airfoil/airFoil2D
nProcs : 1
sigFpe : Enabling floating point exception trapping (FOAM_SIGFPE).
fileModificationChecking : Monitoring run-time modified files using timeStampMaster (fileModificationSkew 10)
allowSystemOperations : Allowing user-supplied system call operations

// * * * * * * * * * * * * * * * * * * * * * * * * * * * * * * * * * * * * * //
Create time

Create mesh for time = 0


SIMPLE: Convergence criteria found
        p: tolerance 1e-05
        U: tolerance 1e-05
        nuTilda: tolerance 1e-05

Reading field p

Reading field U

Reading/calculating face flux field phi

Selecting incompressible transport model Newtonian
Selecting turbulence model type RAS
Selecting RAS turbulence model SpalartAllmaras
Selecting patchDistMethod meshWave
RAS
{
    RASModel        SpalartAllmaras;
    turbulence      on;
    printCoeffs     on;
    sigmaNut        0.66666;
    kappa           0.41;
    Cb1             0.1355;
    Cb2             0.622;
    Cw2             0.3;
    Cw3             2;
    Cv1             7.1;
    Cs              0.3;
}

No MRF models present

No fvModels present
No fvConstraints present

Starting time loop

Time = 1

smoothSolver:  Solving for Ux, Initial residual = 1, Final residual = 0.0120319, No Iterations 4
smoothSolver:  Solving for Uy, Initial residual = 1, Final residual = 0.0140305, No Iterations 4
GAMG:  Solving for p, Initial residual = 1, Final residual = 0.0857385, No Iterations 5
time step continuity errors : sum local = 0.0706919, global = -0.00789591, cumulative = -0.00789591
smoothSolver:  Solving for nuTilda, Initial residual = 1, Final residual = 0.000412052, No Iterations 2
ExecutionTime = 0.24 s  ClockTime = 0 s

Time = 2

smoothSolver:  Solving for Ux, Initial residual = 0.319242, Final residual = 0.00157235, No Iterations 2
smoothSolver:  Solving for Uy, Initial residual = 0.674774, Final residual = 0.00270679, No Iterations 2
GAMG:  Solving for p, Initial residual = 0.491338, Final residual = 0.0403726, No Iterations 3
time step continuity errors : sum local = 0.0816495, global = -0.00662718, cumulative = -0.0145231
smoothSolver:  Solving for nuTilda, Initial residual = 0.158441, Final residual = 0.000108767, No Iterations 2
ExecutionTime = 0.28 s  ClockTime = 0 s

Time = 3

smoothSolver:  Solving for Ux, Initial residual = 0.203541, Final residual = 0.00094803, No Iterations 2
smoothSolver:  Solving for Uy, Initial residual = 0.527316, Final residual = 0.0021139, No Iterations 2
GAMG:  Solving for p, Initial residual = 0.311174, Final residual = 0.0271171, No Iterations 2
time step continuity errors : sum local = 0.0748075, global = -0.0058561, cumulative = -0.0203792
smoothSolver:  Solving for nuTilda, Initial residual = 0.0886576, Final residual = 7.11876e-05, No Iterations 2
ExecutionTime = 0.31 s  ClockTime = 0 s

Time = 4

smoothSolver:  Solving for Ux, Initial residual = 0.13265, Final residual = 0.000550914, No Iterations 2
smoothSolver:  Solving for Uy, Initial residual = 0.39155, Final residual = 0.0015109, No Iterations 2
GAMG:  Solving for p, Initial residual = 0.293416, Final residual = 0.0285871, No Iterations 3
time step continuity errors : sum local = 0.0886687, global = -0.000550216, cumulative = -0.0209294
smoothSolver:  Solving for nuTilda, Initial residual = 0.0600931, Final residual = 5.36336e-05, No Iterations 2
ExecutionTime = 0.35 s  ClockTime = 0 s

Time = 5

smoothSolver:  Solving for Ux, Initial residual = 0.0776163, Final residual = 0.00029042, No Iterations 2
smoothSolver:  Solving for Uy, Initial residual = 0.252943, Final residual = 0.000932209, No Iterations 2
GAMG:  Solving for p, Initial residual = 0.249578, Final residual = 0.0178587, No Iterations 4
time step continuity errors : sum local = 0.0633711, global = 0.0041292, cumulative = -0.0168002
smoothSolver:  Solving for nuTilda, Initial residual = 0.043537, Final residual = 4.33639e-05, No Iterations 2
bounding nuTilda, min: -3.9815e-07 max: 6.15149e-05 average: 1.19889e-06
ExecutionTime = 0.39 s  ClockTime = 0 s

Time = 6

smoothSolver:  Solving for Ux, Initial residual = 0.0308374, Final residual = 0.000129686, No Iterations 2
smoothSolver:  Solving for Uy, Initial residual = 0.104638, Final residual = 0.000429522, No Iterations 2
GAMG:  Solving for p, Initial residual = 0.26845, Final residual = 0.0177093, No Iterations 4
time step continuity errors : sum local = 0.060704, global = 0.00532914, cumulative = -0.0114711
smoothSolver:  Solving for nuTilda, Initial residual = 0.0343374, Final residual = 3.68164e-05, No Iterations 2
bounding nuTilda, min: -4.22254e-07 max: 4.77589e-05 average: 1.2458e-06
ExecutionTime = 0.43 s  ClockTime = 0 s

Time = 7

smoothSolver:  Solving for Ux, Initial residual = 0.0284779, Final residual = 0.000163024, No Iterations 2
smoothSolver:  Solving for Uy, Initial residual = 0.0569409, Final residual = 0.000208706, No Iterations 2
GAMG:  Solving for p, Initial residual = 0.327868, Final residual = 0.0253905, No Iterations 3
time step continuity errors : sum local = 0.0689672, global = 0.0068549, cumulative = -0.00461615
smoothSolver:  Solving for nuTilda, Initial residual = 0.0286989, Final residual = 3.27307e-05, No Iterations 2
bounding nuTilda, min: -1.89455e-07 max: 4.69065e-05 average: 1.29668e-06
ExecutionTime = 0.47 s  ClockTime = 0 s

Time = 8

smoothSolver:  Solving for Ux, Initial residual = 0.054303, Final residual = 0.000233882, No Iterations 2
smoothSolver:  Solving for Uy, Initial residual = 0.141082, Final residual = 0.000483615, No Iterations 2
GAMG:  Solving for p, Initial residual = 0.432927, Final residual = 0.0341803, No Iterations 2
time step continuity errors : sum local = 0.0675826, global = 0.00467972, cumulative = 6.35674e-05
smoothSolver:  Solving for nuTilda, Initial residual = 0.0254199, Final residual = 2.95908e-05, No Iterations 2
bounding nuTilda, min: -6.03387e-07 max: 4.86267e-05 average: 1.35197e-06
ExecutionTime = 0.5 s  ClockTime = 0 s

Time = 9

smoothSolver:  Solving for Ux, Initial residual = 0.0676687, Final residual = 0.000244771, No Iterations 2
smoothSolver:  Solving for Uy, Initial residual = 0.174688, Final residual = 0.000585467, No Iterations 2
GAMG:  Solving for p, Initial residual = 0.367717, Final residual = 0.0302712, No Iterations 2
time step continuity errors : sum local = 0.0586894, global = 0.00537369, cumulative = 0.00543726
smoothSolver:  Solving for nuTilda, Initial residual = 0.0222219, Final residual = 2.71454e-05, No Iterations 2
bounding nuTilda, min: -9.08102e-09 max: 4.93535e-05 average: 1.41206e-06
ExecutionTime = 0.54 s  ClockTime = 0 s

Time = 10

smoothSolver:  Solving for Ux, Initial residual = 0.0644597, Final residual = 0.000208916, No Iterations 2
smoothSolver:  Solving for Uy, Initial residual = 0.164101, Final residual = 0.000567246, No Iterations 2
GAMG:  Solving for p, Initial residual = 0.245166, Final residual = 0.0168066, No Iterations 3
time step continuity errors : sum local = 0.0408737, global = 0.00299718, cumulative = 0.00843444
smoothSolver:  Solving for nuTilda, Initial residual = 0.0194325, Final residual = 2.54297e-05, No Iterations 2
ExecutionTime = 0.57 s  ClockTime = 1 s

Time = 11

smoothSolver:  Solving for Ux, Initial residual = 0.0460594, Final residual = 0.000149147, No Iterations 2
smoothSolver:  Solving for Uy, Initial residual = 0.10882, Final residual = 0.000416705, No Iterations 2
GAMG:  Solving for p, Initial residual = 0.202258, Final residual = 0.0157692, No Iterations 3
time step continuity errors : sum local = 0.047187, global = 0.00096961, cumulative = 0.00940405
smoothSolver:  Solving for nuTilda, Initial residual = 0.0170573, Final residual = 2.41053e-05, No Iterations 2
bounding nuTilda, min: -2.23245e-07 max: 5.94592e-05 average: 1.54823e-06
ExecutionTime = 0.61 s  ClockTime = 1 s

Time = 12

smoothSolver:  Solving for Ux, Initial residual = 0.0264397, Final residual = 0.000110239, No Iterations 2
smoothSolver:  Solving for Uy, Initial residual = 0.0422784, Final residual = 0.000254373, No Iterations 2
GAMG:  Solving for p, Initial residual = 0.183991, Final residual = 0.0121804, No Iterations 3
time step continuity errors : sum local = 0.039176, global = -0.00125793, cumulative = 0.00814612
smoothSolver:  Solving for nuTilda, Initial residual = 0.0152694, Final residual = 2.30287e-05, No Iterations 2
bounding nuTilda, min: -6.46402e-07 max: 6.41057e-05 average: 1.62666e-06
ExecutionTime = 0.65 s  ClockTime = 1 s

Time = 13

smoothSolver:  Solving for Ux, Initial residual = 0.0248209, Final residual = 9.70181e-05, No Iterations 2
smoothSolver:  Solving for Uy, Initial residual = 0.0586691, Final residual = 0.000236613, No Iterations 2
GAMG:  Solving for p, Initial residual = 0.164967, Final residual = 0.00826404, No Iterations 3
time step continuity errors : sum local = 0.0254627, global = -0.00238196, cumulative = 0.00576415
smoothSolver:  Solving for nuTilda, Initial residual = 0.0138924, Final residual = 2.21081e-05, No Iterations 2
ExecutionTime = 0.69 s  ClockTime = 1 s

Time = 14

smoothSolver:  Solving for Ux, Initial residual = 0.0252377, Final residual = 8.85219e-05, No Iterations 2
smoothSolver:  Solving for Uy, Initial residual = 0.0875929, Final residual = 0.00024183, No Iterations 2
GAMG:  Solving for p, Initial residual = 0.146896, Final residual = 0.0141105, No Iterations 2
time step continuity errors : sum local = 0.0371083, global = -0.00167534, cumulative = 0.00408881
smoothSolver:  Solving for nuTilda, Initial residual = 0.0125155, Final residual = 2.13309e-05, No Iterations 2
bounding nuTilda, min: -1.20084e-07 max: 7.00739e-05 average: 1.809e-06
ExecutionTime = 0.72 s  ClockTime = 1 s

Time = 15

smoothSolver:  Solving for Ux, Initial residual = 0.0225637, Final residual = 7.9638e-05, No Iterations 2
smoothSolver:  Solving for Uy, Initial residual = 0.0875648, Final residual = 0.000242184, No Iterations 2
GAMG:  Solving for p, Initial residual = 0.156793, Final residual = 0.00718756, No Iterations 3
time step continuity errors : sum local = 0.0150153, global = -0.00162404, cumulative = 0.00246477
smoothSolver:  Solving for nuTilda, Initial residual = 0.0112402, Final residual = 2.07073e-05, No Iterations 2
ExecutionTime = 0.76 s  ClockTime = 1 s

Time = 16

smoothSolver:  Solving for Ux, Initial residual = 0.0173169, Final residual = 7.50133e-05, No Iterations 2
smoothSolver:  Solving for Uy, Initial residual = 0.0705003, Final residual = 0.000208424, No Iterations 2
GAMG:  Solving for p, Initial residual = 0.246632, Final residual = 0.013706, No Iterations 3
time step continuity errors : sum local = 0.0183204, global = -0.001938, cumulative = 0.000526765
smoothSolver:  Solving for nuTilda, Initial residual = 0.0102895, Final residual = 2.01717e-05, No Iterations 2
bounding nuTilda, min: -7.21787e-07 max: 0.000134696 average: 2.03433e-06
ExecutionTime = 0.8 s  ClockTime = 1 s

Time = 17

smoothSolver:  Solving for Ux, Initial residual = 0.0124009, Final residual = 7.26994e-05, No Iterations 2
smoothSolver:  Solving for Uy, Initial residual = 0.0451157, Final residual = 0.000166247, No Iterations 2
GAMG:  Solving for p, Initial residual = 0.368467, Final residual = 0.0208269, No Iterations 3
time step continuity errors : sum local = 0.0185897, global = -0.00114665, cumulative = -0.000619887
smoothSolver:  Solving for nuTilda, Initial residual = 0.00942909, Final residual = 1.97092e-05, No Iterations 2
bounding nuTilda, min: -1.21088e-06 max: 0.000198856 average: 2.16704e-06
ExecutionTime = 0.83 s  ClockTime = 1 s

Time = 18

smoothSolver:  Solving for Ux, Initial residual = 0.0120334, Final residual = 6.99182e-05, No Iterations 2
smoothSolver:  Solving for Uy, Initial residual = 0.0264705, Final residual = 0.00013604, No Iterations 2
GAMG:  Solving for p, Initial residual = 0.283237, Final residual = 0.0142437, No Iterations 3
time step continuity errors : sum local = 0.0151383, global = 1.54646e-05, cumulative = -0.000604423
smoothSolver:  Solving for nuTilda, Initial residual = 0.00857092, Final residual = 1.9222e-05, No Iterations 2
bounding nuTilda, min: -1.00065e-06 max: 0.000247719 average: 2.31307e-06
ExecutionTime = 0.87 s  ClockTime = 1 s

Time = 19

smoothSolver:  Solving for Ux, Initial residual = 0.0136141, Final residual = 6.48702e-05, No Iterations 2
smoothSolver:  Solving for Uy, Initial residual = 0.0237108, Final residual = 0.000111118, No Iterations 2
GAMG:  Solving for p, Initial residual = 0.247095, Final residual = 0.00951685, No Iterations 3
time step continuity errors : sum local = 0.00999449, global = 0.00108143, cumulative = 0.000477008
smoothSolver:  Solving for nuTilda, Initial residual = 0.00778613, Final residual = 1.88037e-05, No Iterations 2
bounding nuTilda, min: -9.5164e-07 max: 0.000272556 average: 2.47277e-06
ExecutionTime = 0.91 s  ClockTime = 1 s

Time = 20

smoothSolver:  Solving for Ux, Initial residual = 0.0139213, Final residual = 5.745e-05, No Iterations 2
smoothSolver:  Solving for Uy, Initial residual = 0.0289315, Final residual = 9.52898e-05, No Iterations 2
GAMG:  Solving for p, Initial residual = 0.241209, Final residual = 0.0208161, No Iterations 2
time step continuity errors : sum local = 0.01888, global = 0.00138296, cumulative = 0.00185997
smoothSolver:  Solving for nuTilda, Initial residual = 0.00720145, Final residual = 1.84169e-05, No Iterations 2
bounding nuTilda, min: -1.31197e-06 max: 0.000283321 average: 2.64897e-06
ExecutionTime = 0.95 s  ClockTime = 1 s

Time = 21

smoothSolver:  Solving for Ux, Initial residual = 0.0126945, Final residual = 5.04174e-05, No Iterations 2
smoothSolver:  Solving for Uy, Initial residual = 0.0276847, Final residual = 8.58032e-05, No Iterations 2
GAMG:  Solving for p, Initial residual = 0.266796, Final residual = 0.0117198, No Iterations 3
time step continuity errors : sum local = 0.00843992, global = 0.000911298, cumulative = 0.00277127
smoothSolver:  Solving for nuTilda, Initial residual = 0.00662213, Final residual = 1.81195e-05, No Iterations 2
bounding nuTilda, min: -8.91342e-07 max: 0.000276742 average: 2.84146e-06
ExecutionTime = 0.98 s  ClockTime = 1 s

Time = 22

smoothSolver:  Solving for Ux, Initial residual = 0.0106587, Final residual = 4.48255e-05, No Iterations 2
smoothSolver:  Solving for Uy, Initial residual = 0.0219893, Final residual = 8.09508e-05, No Iterations 2
GAMG:  Solving for p, Initial residual = 0.164004, Final residual = 0.00817346, No Iterations 3
time step continuity errors : sum local = 0.0087301, global = 0.00101076, cumulative = 0.00378203
smoothSolver:  Solving for nuTilda, Initial residual = 0.00607559, Final residual = 1.78323e-05, No Iterations 2
bounding nuTilda, min: -1.10002e-06 max: 0.000269134 average: 3.05405e-06
ExecutionTime = 1.02 s  ClockTime = 1 s

Time = 23

smoothSolver:  Solving for Ux, Initial residual = 0.00883002, Final residual = 4.126e-05, No Iterations 2
smoothSolver:  Solving for Uy, Initial residual = 0.0178757, Final residual = 7.53574e-05, No Iterations 2
GAMG:  Solving for p, Initial residual = 0.124416, Final residual = 0.00565921, No Iterations 3
time step continuity errors : sum local = 0.0077682, global = 0.000742057, cumulative = 0.00452409
smoothSolver:  Solving for nuTilda, Initial residual = 0.00563569, Final residual = 1.75992e-05, No Iterations 2
bounding nuTilda, min: -1.30221e-06 max: 0.000265505 average: 3.28804e-06
ExecutionTime = 1.06 s  ClockTime = 1 s

Time = 24

smoothSolver:  Solving for Ux, Initial residual = 0.00760956, Final residual = 3.92563e-05, No Iterations 2
smoothSolver:  Solving for Uy, Initial residual = 0.0179186, Final residual = 7.11716e-05, No Iterations 2
GAMG:  Solving for p, Initial residual = 0.101471, Final residual = 0.00947787, No Iterations 2
time step continuity errors : sum local = 0.0147872, global = 0.000293801, cumulative = 0.00481789
smoothSolver:  Solving for nuTilda, Initial residual = 0.00521772, Final residual = 1.73646e-05, No Iterations 2
bounding nuTilda, min: -1.30122e-06 max: 0.000266847 average: 3.545e-06
ExecutionTime = 1.09 s  ClockTime = 1 s

Time = 25

smoothSolver:  Solving for Ux, Initial residual = 0.00714965, Final residual = 3.76932e-05, No Iterations 2
smoothSolver:  Solving for Uy, Initial residual = 0.0208997, Final residual = 6.71877e-05, No Iterations 2
GAMG:  Solving for p, Initial residual = 0.089177, Final residual = 0.00777024, No Iterations 2
time step continuity errors : sum local = 0.0123917, global = -6.14327e-05, cumulative = 0.00475646
smoothSolver:  Solving for nuTilda, Initial residual = 0.00481478, Final residual = 1.71716e-05, No Iterations 2
bounding nuTilda, min: -1.44226e-06 max: 0.000269132 average: 3.82744e-06
ExecutionTime = 1.13 s  ClockTime = 1 s

Time = 26

smoothSolver:  Solving for Ux, Initial residual = 0.0068039, Final residual = 3.66729e-05, No Iterations 2
smoothSolver:  Solving for Uy, Initial residual = 0.0223951, Final residual = 5.66502e-05, No Iterations 2
GAMG:  Solving for p, Initial residual = 0.0787216, Final residual = 0.00630541, No Iterations 2
time step continuity errors : sum local = 0.0100377, global = -0.000744476, cumulative = 0.00401198
smoothSolver:  Solving for nuTilda, Initial residual = 0.00447419, Final residual = 1.69616e-05, No Iterations 2
bounding nuTilda, min: -3.98399e-06 max: 0.000271611 average: 4.13942e-06
ExecutionTime = 1.16 s  ClockTime = 1 s

Time = 27

smoothSolver:  Solving for Ux, Initial residual = 0.00622537, Final residual = 3.59157e-05, No Iterations 2
smoothSolver:  Solving for Uy, Initial residual = 0.0214941, Final residual = 4.94967e-05, No Iterations 2
GAMG:  Solving for p, Initial residual = 0.0708033, Final residual = 0.00624625, No Iterations 2
time step continuity errors : sum local = 0.00968788, global = -0.000932648, cumulative = 0.00307933
smoothSolver:  Solving for nuTilda, Initial residual = 0.00416413, Final residual = 1.67042e-05, No Iterations 2
bounding nuTilda, min: -1.97656e-06 max: 0.000276958 average: 4.48178e-06
ExecutionTime = 1.2 s  ClockTime = 1 s

Time = 28

smoothSolver:  Solving for Ux, Initial residual = 0.00551114, Final residual = 3.59738e-05, No Iterations 2
smoothSolver:  Solving for Uy, Initial residual = 0.019732, Final residual = 4.4272e-05, No Iterations 2
GAMG:  Solving for p, Initial residual = 0.0648043, Final residual = 0.00306153, No Iterations 3
time step continuity errors : sum local = 0.00440896, global = -0.000647304, cumulative = 0.00243203
smoothSolver:  Solving for nuTilda, Initial residual = 0.00385837, Final residual = 1.64889e-05, No Iterations 2
bounding nuTilda, min: -1.24866e-06 max: 0.000288929 average: 4.85574e-06
ExecutionTime = 1.24 s  ClockTime = 1 s

Time = 29

smoothSolver:  Solving for Ux, Initial residual = 0.00522001, Final residual = 3.58073e-05, No Iterations 2
smoothSolver:  Solving for Uy, Initial residual = 0.0171223, Final residual = 4.0569e-05, No Iterations 2
GAMG:  Solving for p, Initial residual = 0.0732446, Final residual = 0.00320336, No Iterations 3
time step continuity errors : sum local = 0.00387735, global = -0.000597277, cumulative = 0.00183475
smoothSolver:  Solving for nuTilda, Initial residual = 0.00359187, Final residual = 1.62048e-05, No Iterations 2
bounding nuTilda, min: -2.20214e-06 max: 0.000299473 average: 5.26267e-06
ExecutionTime = 1.28 s  ClockTime = 1 s

Time = 30

smoothSolver:  Solving for Ux, Initial residual = 0.00558494, Final residual = 3.51728e-05, No Iterations 2
smoothSolver:  Solving for Uy, Initial residual = 0.0148215, Final residual = 3.83724e-05, No Iterations 2
GAMG:  Solving for p, Initial residual = 0.0877075, Final residual = 0.00740131, No Iterations 2
time step continuity errors : sum local = 0.00763038, global = -0.000461818, cumulative = 0.00137293
smoothSolver:  Solving for nuTilda, Initial residual = 0.00335856, Final residual = 1.59315e-05, No Iterations 2
bounding nuTilda, min: -6.41659e-06 max: 0.000306112 average: 5.70429e-06
ExecutionTime = 1.31 s  ClockTime = 1 s

Time = 31

smoothSolver:  Solving for Ux, Initial residual = 0.00576692, Final residual = 3.41499e-05, No Iterations 2
smoothSolver:  Solving for Uy, Initial residual = 0.0133813, Final residual = 3.54253e-05, No Iterations 2
GAMG:  Solving for p, Initial residual = 0.0912731, Final residual = 0.00665455, No Iterations 2
time step continuity errors : sum local = 0.00620095, global = -0.000239344, cumulative = 0.00113359
smoothSolver:  Solving for nuTilda, Initial residual = 0.00312952, Final residual = 1.56203e-05, No Iterations 2
bounding nuTilda, min: -2.69459e-06 max: 0.000310978 average: 6.18394e-06
ExecutionTime = 1.35 s  ClockTime = 1 s

Time = 32

smoothSolver:  Solving for Ux, Initial residual = 0.00573413, Final residual = 3.2215e-05, No Iterations 2
smoothSolver:  Solving for Uy, Initial residual = 0.012352, Final residual = 2.9715e-05, No Iterations 2
GAMG:  Solving for p, Initial residual = 0.0874151, Final residual = 0.00592677, No Iterations 2
time step continuity errors : sum local = 0.0052089, global = 0.000262862, cumulative = 0.00139645
smoothSolver:  Solving for nuTilda, Initial residual = 0.0029242, Final residual = 1.53551e-05, No Iterations 2
bounding nuTilda, min: -1.95455e-06 max: 0.000315192 average: 6.70071e-06
ExecutionTime = 1.38 s  ClockTime = 1 s

Time = 33

smoothSolver:  Solving for Ux, Initial residual = 0.00553731, Final residual = 3.01129e-05, No Iterations 2
smoothSolver:  Solving for Uy, Initial residual = 0.0118589, Final residual = 2.48035e-05, No Iterations 2
GAMG:  Solving for p, Initial residual = 0.0787997, Final residual = 0.00550366, No Iterations 2
time step continuity errors : sum local = 0.00475763, global = 0.000408567, cumulative = 0.00180502
smoothSolver:  Solving for nuTilda, Initial residual = 0.00274887, Final residual = 1.50425e-05, No Iterations 2
bounding nuTilda, min: -1.65317e-06 max: 0.000317152 average: 7.25653e-06
ExecutionTime = 1.42 s  ClockTime = 1 s

Time = 34

smoothSolver:  Solving for Ux, Initial residual = 0.00525308, Final residual = 2.84909e-05, No Iterations 2
smoothSolver:  Solving for Uy, Initial residual = 0.0117757, Final residual = 2.19192e-05, No Iterations 2
GAMG:  Solving for p, Initial residual = 0.0659421, Final residual = 0.005582, No Iterations 2
time step continuity errors : sum local = 0.00501652, global = 0.000404174, cumulative = 0.00220919
smoothSolver:  Solving for nuTilda, Initial residual = 0.00257952, Final residual = 1.47712e-05, No Iterations 2
bounding nuTilda, min: -5.02596e-06 max: 0.000315735 average: 7.85817e-06
ExecutionTime = 1.46 s  ClockTime = 1 s

Time = 35

smoothSolver:  Solving for Ux, Initial residual = 0.00494848, Final residual = 2.73403e-05, No Iterations 2
smoothSolver:  Solving for Uy, Initial residual = 0.0119524, Final residual = 2.13112e-05, No Iterations 2
GAMG:  Solving for p, Initial residual = 0.0521487, Final residual = 0.0050418, No Iterations 2
time step continuity errors : sum local = 0.00493166, global = 0.000379944, cumulative = 0.00258914
smoothSolver:  Solving for nuTilda, Initial residual = 0.00242489, Final residual = 1.45363e-05, No Iterations 2
bounding nuTilda, min: -3.32371e-06 max: 0.000313075 average: 8.50673e-06
ExecutionTime = 1.49 s  ClockTime = 1 s

Time = 36

smoothSolver:  Solving for Ux, Initial residual = 0.00466738, Final residual = 2.65853e-05, No Iterations 2
smoothSolver:  Solving for Uy, Initial residual = 0.0122539, Final residual = 2.18292e-05, No Iterations 2
GAMG:  Solving for p, Initial residual = 0.0455014, Final residual = 0.00423873, No Iterations 2
time step continuity errors : sum local = 0.0045754, global = 0.000347106, cumulative = 0.00293624
smoothSolver:  Solving for nuTilda, Initial residual = 0.00229615, Final residual = 1.4356e-05, No Iterations 2
bounding nuTilda, min: -3.26912e-06 max: 0.000309711 average: 9.20598e-06
ExecutionTime = 1.53 s  ClockTime = 1 s

Time = 37

smoothSolver:  Solving for Ux, Initial residual = 0.00444081, Final residual = 2.60635e-05, No Iterations 2
smoothSolver:  Solving for Uy, Initial residual = 0.0125408, Final residual = 2.25441e-05, No Iterations 2
GAMG:  Solving for p, Initial residual = 0.0429942, Final residual = 0.00313952, No Iterations 2
time step continuity errors : sum local = 0.00366187, global = 0.00028797, cumulative = 0.00322421
smoothSolver:  Solving for nuTilda, Initial residual = 0.0021694, Final residual = 1.41654e-05, No Iterations 2
bounding nuTilda, min: -2.52685e-06 max: 0.000313477 average: 9.96513e-06
ExecutionTime = 1.56 s  ClockTime = 1 s

Time = 38

smoothSolver:  Solving for Ux, Initial residual = 0.0042922, Final residual = 2.56387e-05, No Iterations 2
smoothSolver:  Solving for Uy, Initial residual = 0.0127343, Final residual = 2.16509e-05, No Iterations 2
GAMG:  Solving for p, Initial residual = 0.0403021, Final residual = 0.00236288, No Iterations 2
time step continuity errors : sum local = 0.00288898, global = 0.000155684, cumulative = 0.0033799
smoothSolver:  Solving for nuTilda, Initial residual = 0.00205241, Final residual = 1.4015e-05, No Iterations 2
bounding nuTilda, min: -4.22512e-06 max: 0.00032016 average: 1.07859e-05
ExecutionTime = 1.6 s  ClockTime = 2 s

Time = 39

smoothSolver:  Solving for Ux, Initial residual = 0.0041712, Final residual = 2.52239e-05, No Iterations 2
smoothSolver:  Solving for Uy, Initial residual = 0.0127518, Final residual = 1.86202e-05, No Iterations 2
GAMG:  Solving for p, Initial residual = 0.0358175, Final residual = 0.00192185, No Iterations 2
time step continuity errors : sum local = 0.00238971, global = -0.000136462, cumulative = 0.00324343
smoothSolver:  Solving for nuTilda, Initial residual = 0.0019333, Final residual = 1.37065e-05, No Iterations 2
bounding nuTilda, min: -1.97123e-06 max: 0.000325576 average: 1.16762e-05
ExecutionTime = 1.63 s  ClockTime = 2 s

Time = 40

smoothSolver:  Solving for Ux, Initial residual = 0.00406652, Final residual = 2.47068e-05, No Iterations 2
smoothSolver:  Solving for Uy, Initial residual = 0.0125676, Final residual = 1.56442e-05, No Iterations 2
GAMG:  Solving for p, Initial residual = 0.0310562, Final residual = 0.00178631, No Iterations 2
time step continuity errors : sum local = 0.00221859, global = -0.000177781, cumulative = 0.00306565
smoothSolver:  Solving for nuTilda, Initial residual = 0.00181959, Final residual = 1.34467e-05, No Iterations 2
bounding nuTilda, min: -1.8643e-06 max: 0.000329985 average: 1.2638e-05
ExecutionTime = 1.67 s  ClockTime = 2 s

Time = 41

smoothSolver:  Solving for Ux, Initial residual = 0.0039693, Final residual = 2.41314e-05, No Iterations 2
smoothSolver:  Solving for Uy, Initial residual = 0.0123165, Final residual = 1.35257e-05, No Iterations 2
GAMG:  Solving for p, Initial residual = 0.0273599, Final residual = 0.00206786, No Iterations 2
time step continuity errors : sum local = 0.0025048, global = -0.000215262, cumulative = 0.00285039
smoothSolver:  Solving for nuTilda, Initial residual = 0.00171263, Final residual = 1.31176e-05, No Iterations 2
bounding nuTilda, min: -1.64696e-06 max: 0.000334682 average: 1.36741e-05
ExecutionTime = 1.71 s  ClockTime = 2 s

Time = 42

smoothSolver:  Solving for Ux, Initial residual = 0.00388679, Final residual = 2.35737e-05, No Iterations 2
smoothSolver:  Solving for Uy, Initial residual = 0.0120422, Final residual = 1.23156e-05, No Iterations 2
GAMG:  Solving for p, Initial residual = 0.025243, Final residual = 0.00212392, No Iterations 2
time step continuity errors : sum local = 0.00246608, global = -0.000193711, cumulative = 0.00265668
smoothSolver:  Solving for nuTilda, Initial residual = 0.00161967, Final residual = 1.27993e-05, No Iterations 2
bounding nuTilda, min: -6.19599e-06 max: 0.000339217 average: 1.47837e-05
ExecutionTime = 1.74 s  ClockTime = 2 s

Time = 43

smoothSolver:  Solving for Ux, Initial residual = 0.00383565, Final residual = 2.30059e-05, No Iterations 2
smoothSolver:  Solving for Uy, Initial residual = 0.0117142, Final residual = 1.22035e-05, No Iterations 2
GAMG:  Solving for p, Initial residual = 0.0260218, Final residual = 0.00197147, No Iterations 2
time step continuity errors : sum local = 0.00216811, global = -0.000157941, cumulative = 0.00249874
smoothSolver:  Solving for nuTilda, Initial residual = 0.00153171, Final residual = 1.24628e-05, No Iterations 2
bounding nuTilda, min: -1.84166e-06 max: 0.000342971 average: 1.59688e-05
ExecutionTime = 1.78 s  ClockTime = 2 s

Time = 44

smoothSolver:  Solving for Ux, Initial residual = 0.00381338, Final residual = 2.24328e-05, No Iterations 2
smoothSolver:  Solving for Uy, Initial residual = 0.0113635, Final residual = 1.25797e-05, No Iterations 2
GAMG:  Solving for p, Initial residual = 0.0275507, Final residual = 0.00166696, No Iterations 2
time step continuity errors : sum local = 0.00174301, global = -0.000139066, cumulative = 0.00235967
smoothSolver:  Solving for nuTilda, Initial residual = 0.00144896, Final residual = 1.20956e-05, No Iterations 2
bounding nuTilda, min: -1.81356e-06 max: 0.000346117 average: 1.72171e-05
ExecutionTime = 1.81 s  ClockTime = 2 s

Time = 45

smoothSolver:  Solving for Ux, Initial residual = 0.0037975, Final residual = 2.181e-05, No Iterations 2
smoothSolver:  Solving for Uy, Initial residual = 0.0110497, Final residual = 1.26614e-05, No Iterations 2
GAMG:  Solving for p, Initial residual = 0.0276315, Final residual = 0.00128103, No Iterations 2
time step continuity errors : sum local = 0.00129602, global = -7.39865e-05, cumulative = 0.00228569
smoothSolver:  Solving for nuTilda, Initial residual = 0.00137394, Final residual = 1.1691e-05, No Iterations 2
bounding nuTilda, min: -2.61723e-06 max: 0.000348791 average: 1.85199e-05
ExecutionTime = 1.85 s  ClockTime = 2 s

Time = 46

smoothSolver:  Solving for Ux, Initial residual = 0.00376301, Final residual = 2.10573e-05, No Iterations 2
smoothSolver:  Solving for Uy, Initial residual = 0.0108026, Final residual = 1.22719e-05, No Iterations 2
GAMG:  Solving for p, Initial residual = 0.025882, Final residual = 0.00250556, No Iterations 1
time step continuity errors : sum local = 0.00249612, global = 0.000109619, cumulative = 0.00239531
smoothSolver:  Solving for nuTilda, Initial residual = 0.0013031, Final residual = 1.12397e-05, No Iterations 2
bounding nuTilda, min: -4.8234e-06 max: 0.000351147 average: 1.98688e-05
ExecutionTime = 1.88 s  ClockTime = 2 s

Time = 47

smoothSolver:  Solving for Ux, Initial residual = 0.00369535, Final residual = 2.04498e-05, No Iterations 2
smoothSolver:  Solving for Uy, Initial residual = 0.0106522, Final residual = 1.20421e-05, No Iterations 2
GAMG:  Solving for p, Initial residual = 0.0238228, Final residual = 0.00139174, No Iterations 2
time step continuity errors : sum local = 0.00137812, global = 0.000160517, cumulative = 0.00255582
smoothSolver:  Solving for nuTilda, Initial residual = 0.00123859, Final residual = 1.07879e-05, No Iterations 2
bounding nuTilda, min: -1.90158e-06 max: 0.000353192 average: 2.12531e-05
ExecutionTime = 1.92 s  ClockTime = 2 s

Time = 48

smoothSolver:  Solving for Ux, Initial residual = 0.00360085, Final residual = 1.96645e-05, No Iterations 2
smoothSolver:  Solving for Uy, Initial residual = 0.0105343, Final residual = 1.24173e-05, No Iterations 2
GAMG:  Solving for p, Initial residual = 0.0207345, Final residual = 0.00165815, No Iterations 2
time step continuity errors : sum local = 0.00165687, global = 0.000157656, cumulative = 0.00271348
smoothSolver:  Solving for nuTilda, Initial residual = 0.00117867, Final residual = 1.03018e-05, No Iterations 2
bounding nuTilda, min: -4.54376e-06 max: 0.000354997 average: 2.26538e-05
ExecutionTime = 1.95 s  ClockTime = 2 s

Time = 49

smoothSolver:  Solving for Ux, Initial residual = 0.00349651, Final residual = 1.89692e-05, No Iterations 2
smoothSolver:  Solving for Uy, Initial residual = 0.010474, Final residual = 1.34215e-05, No Iterations 2
GAMG:  Solving for p, Initial residual = 0.0184463, Final residual = 0.00166304, No Iterations 2
time step continuity errors : sum local = 0.00170079, global = 0.00014812, cumulative = 0.0028616
smoothSolver:  Solving for nuTilda, Initial residual = 0.00112171, Final residual = 9.81976e-06, No Iterations 2
bounding nuTilda, min: -4.46015e-06 max: 0.000356632 average: 2.40522e-05
ExecutionTime = 1.99 s  ClockTime = 2 s

Time = 50

smoothSolver:  Solving for Ux, Initial residual = 0.00339932, Final residual = 1.84106e-05, No Iterations 2
smoothSolver:  Solving for Uy, Initial residual = 0.0104388, Final residual = 1.46289e-05, No Iterations 2
GAMG:  Solving for p, Initial residual = 0.0176339, Final residual = 0.00150335, No Iterations 2
time step continuity errors : sum local = 0.00158249, global = 0.000133835, cumulative = 0.00299544
smoothSolver:  Solving for nuTilda, Initial residual = 0.00106911, Final residual = 9.35061e-06, No Iterations 2
bounding nuTilda, min: -6.13195e-06 max: 0.000358148 average: 2.54365e-05
ExecutionTime = 2.12 s  ClockTime = 2 s

Time = 51

smoothSolver:  Solving for Ux, Initial residual = 0.00332303, Final residual = 1.80687e-05, No Iterations 2
smoothSolver:  Solving for Uy, Initial residual = 0.0104049, Final residual = 1.55747e-05, No Iterations 2
GAMG:  Solving for p, Initial residual = 0.0173504, Final residual = 0.00117934, No Iterations 2
time step continuity errors : sum local = 0.00127351, global = 0.000139356, cumulative = 0.00313479
smoothSolver:  Solving for nuTilda, Initial residual = 0.00102124, Final residual = 8.87412e-06, No Iterations 2
bounding nuTilda, min: -2.37859e-06 max: 0.000359582 average: 2.67902e-05
ExecutionTime = 2.17 s  ClockTime = 2 s

Time = 52

smoothSolver:  Solving for Ux, Initial residual = 0.00326578, Final residual = 1.78876e-05, No Iterations 2
smoothSolver:  Solving for Uy, Initial residual = 0.0103537, Final residual = 1.61165e-05, No Iterations 2
GAMG:  Solving for p, Initial residual = 0.0169278, Final residual = 0.000844637, No Iterations 2
time step continuity errors : sum local = 0.000925917, global = 0.000110044, cumulative = 0.00324483
smoothSolver:  Solving for nuTilda, Initial residual = 0.000976223, Final residual = 8.43927e-06, No Iterations 2
bounding nuTilda, min: -4.09748e-06 max: 0.00036123 average: 2.81042e-05
ExecutionTime = 2.21 s  ClockTime = 2 s

Time = 53

smoothSolver:  Solving for Ux, Initial residual = 0.00322692, Final residual = 1.77766e-05, No Iterations 2
smoothSolver:  Solving for Uy, Initial residual = 0.0102583, Final residual = 1.60492e-05, No Iterations 2
GAMG:  Solving for p, Initial residual = 0.0159385, Final residual = 0.000694103, No Iterations 2
time step continuity errors : sum local = 0.000764793, global = 2.03994e-05, cumulative = 0.00326523
smoothSolver:  Solving for nuTilda, Initial residual = 0.000935224, Final residual = 8.01329e-06, No Iterations 2
bounding nuTilda, min: -2.20473e-06 max: 0.000364048 average: 2.93632e-05
ExecutionTime = 2.24 s  ClockTime = 2 s

Time = 54

smoothSolver:  Solving for Ux, Initial residual = 0.00319942, Final residual = 1.76689e-05, No Iterations 2
smoothSolver:  Solving for Uy, Initial residual = 0.0101302, Final residual = 1.57182e-05, No Iterations 2
GAMG:  Solving for p, Initial residual = 0.0148794, Final residual = 0.000600991, No Iterations 2
time step continuity errors : sum local = 0.000663514, global = -6.88428e-05, cumulative = 0.00319639
smoothSolver:  Solving for nuTilda, Initial residual = 0.000899393, Final residual = 7.62411e-06, No Iterations 2
bounding nuTilda, min: -4.94175e-06 max: 0.000366645 average: 3.05648e-05
ExecutionTime = 2.28 s  ClockTime = 2 s

Time = 55

smoothSolver:  Solving for Ux, Initial residual = 0.00317986, Final residual = 1.75725e-05, No Iterations 2
smoothSolver:  Solving for Uy, Initial residual = 0.0099951, Final residual = 1.55459e-05, No Iterations 2
GAMG:  Solving for p, Initial residual = 0.0139909, Final residual = 0.000651269, No Iterations 2
time step continuity errors : sum local = 0.000718724, global = -0.00012136, cumulative = 0.00307503
smoothSolver:  Solving for nuTilda, Initial residual = 0.000865286, Final residual = 7.28769e-06, No Iterations 2
bounding nuTilda, min: -2.64999e-06 max: 0.000369043 average: 3.16982e-05
ExecutionTime = 2.32 s  ClockTime = 2 s

Time = 56

smoothSolver:  Solving for Ux, Initial residual = 0.00316696, Final residual = 1.74825e-05, No Iterations 2
smoothSolver:  Solving for Uy, Initial residual = 0.0098659, Final residual = 1.5712e-05, No Iterations 2
GAMG:  Solving for p, Initial residual = 0.0132305, Final residual = 0.000784549, No Iterations 2
time step continuity errors : sum local = 0.000860959, global = -0.000122614, cumulative = 0.00295242
smoothSolver:  Solving for nuTilda, Initial residual = 0.000837244, Final residual = 6.97281e-06, No Iterations 2
bounding nuTilda, min: -4.56647e-06 max: 0.000371262 average: 3.2771e-05
ExecutionTime = 2.35 s  ClockTime = 2 s

Time = 57

smoothSolver:  Solving for Ux, Initial residual = 0.00315769, Final residual = 1.73932e-05, No Iterations 2
smoothSolver:  Solving for Uy, Initial residual = 0.00974406, Final residual = 1.61511e-05, No Iterations 2
GAMG:  Solving for p, Initial residual = 0.0128432, Final residual = 0.000823057, No Iterations 2
time step continuity errors : sum local = 0.000891405, global = -0.00011244, cumulative = 0.00283998
smoothSolver:  Solving for nuTilda, Initial residual = 0.000811502, Final residual = 6.6974e-06, No Iterations 2
bounding nuTilda, min: -2.45325e-06 max: 0.00037332 average: 3.37793e-05
ExecutionTime = 2.39 s  ClockTime = 2 s

Time = 58

smoothSolver:  Solving for Ux, Initial residual = 0.00315092, Final residual = 1.73183e-05, No Iterations 2
smoothSolver:  Solving for Uy, Initial residual = 0.0096228, Final residual = 1.66243e-05, No Iterations 2
GAMG:  Solving for p, Initial residual = 0.0129674, Final residual = 0.000787321, No Iterations 2
time step continuity errors : sum local = 0.000838469, global = -0.00010303, cumulative = 0.00273695
smoothSolver:  Solving for nuTilda, Initial residual = 0.000787584, Final residual = 6.46777e-06, No Iterations 2
bounding nuTilda, min: -6.77063e-06 max: 0.000375234 average: 3.47238e-05
ExecutionTime = 2.42 s  ClockTime = 2 s

Time = 59

smoothSolver:  Solving for Ux, Initial residual = 0.00314463, Final residual = 1.72768e-05, No Iterations 2
smoothSolver:  Solving for Uy, Initial residual = 0.00949617, Final residual = 1.69324e-05, No Iterations 2
GAMG:  Solving for p, Initial residual = 0.0132301, Final residual = 0.000691688, No Iterations 2
time step continuity errors : sum local = 0.00072523, global = -8.86745e-05, cumulative = 0.00264827
smoothSolver:  Solving for nuTilda, Initial residual = 0.000769371, Final residual = 6.29968e-06, No Iterations 2
bounding nuTilda, min: -2.26382e-06 max: 0.000377021 average: 3.5614e-05
ExecutionTime = 2.46 s  ClockTime = 2 s

Time = 60

smoothSolver:  Solving for Ux, Initial residual = 0.00313625, Final residual = 1.72481e-05, No Iterations 2
smoothSolver:  Solving for Uy, Initial residual = 0.00936594, Final residual = 1.7049e-05, No Iterations 2
GAMG:  Solving for p, Initial residual = 0.0132064, Final residual = 0.000585662, No Iterations 2
time step continuity errors : sum local = 0.000607014, global = -5.92963e-05, cumulative = 0.00258898
smoothSolver:  Solving for nuTilda, Initial residual = 0.000753316, Final residual = 6.13125e-06, No Iterations 2
bounding nuTilda, min: -4.7597e-06 max: 0.000378692 average: 3.64554e-05
ExecutionTime = 2.49 s  ClockTime = 2 s

Time = 61

smoothSolver:  Solving for Ux, Initial residual = 0.00312323, Final residual = 1.72271e-05, No Iterations 2
smoothSolver:  Solving for Uy, Initial residual = 0.00923796, Final residual = 1.70703e-05, No Iterations 2
GAMG:  Solving for p, Initial residual = 0.0128301, Final residual = 0.000520478, No Iterations 2
time step continuity errors : sum local = 0.00053546, global = -1.35852e-05, cumulative = 0.00257539
smoothSolver:  Solving for nuTilda, Initial residual = 0.000740015, Final residual = 6.0326e-06, No Iterations 2
bounding nuTilda, min: -1.94223e-06 max: 0.000380258 average: 3.72494e-05
ExecutionTime = 2.53 s  ClockTime = 2 s

Time = 62

smoothSolver:  Solving for Ux, Initial residual = 0.00310598, Final residual = 1.72175e-05, No Iterations 2
smoothSolver:  Solving for Uy, Initial residual = 0.00911944, Final residual = 1.70843e-05, No Iterations 2
GAMG:  Solving for p, Initial residual = 0.0123657, Final residual = 0.00123148, No Iterations 1
time step continuity errors : sum local = 0.00126114, global = 3.9419e-05, cumulative = 0.00261481
smoothSolver:  Solving for nuTilda, Initial residual = 0.000729014, Final residual = 5.94609e-06, No Iterations 2
bounding nuTilda, min: -5.08595e-06 max: 0.000381735 average: 3.80081e-05
ExecutionTime = 2.56 s  ClockTime = 2 s

Time = 63

smoothSolver:  Solving for Ux, Initial residual = 0.00307905, Final residual = 1.70881e-05, No Iterations 2
smoothSolver:  Solving for Uy, Initial residual = 0.00902336, Final residual = 1.72316e-05, No Iterations 2
GAMG:  Solving for p, Initial residual = 0.0116553, Final residual = 0.00060799, No Iterations 2
time step continuity errors : sum local = 0.00062107, global = 8.0462e-05, cumulative = 0.00269527
smoothSolver:  Solving for nuTilda, Initial residual = 0.000722357, Final residual = 5.90231e-06, No Iterations 2
bounding nuTilda, min: -1.92673e-06 max: 0.000383116 average: 3.87357e-05
ExecutionTime = 2.6 s  ClockTime = 3 s

Time = 64

smoothSolver:  Solving for Ux, Initial residual = 0.00306192, Final residual = 1.71548e-05, No Iterations 2
smoothSolver:  Solving for Uy, Initial residual = 0.00891624, Final residual = 1.71322e-05, No Iterations 2
GAMG:  Solving for p, Initial residual = 0.0114473, Final residual = 0.000659225, No Iterations 2
time step continuity errors : sum local = 0.000673412, global = 0.000112869, cumulative = 0.00280814
smoothSolver:  Solving for nuTilda, Initial residual = 0.000717147, Final residual = 5.86635e-06, No Iterations 2
bounding nuTilda, min: -3.86584e-06 max: 0.000384422 average: 3.94379e-05
ExecutionTime = 2.64 s  ClockTime = 3 s

Time = 65

smoothSolver:  Solving for Ux, Initial residual = 0.0030451, Final residual = 1.72438e-05, No Iterations 2
smoothSolver:  Solving for Uy, Initial residual = 0.00881645, Final residual = 1.71082e-05, No Iterations 2
GAMG:  Solving for p, Initial residual = 0.0112624, Final residual = 0.000721331, No Iterations 2
time step continuity errors : sum local = 0.000738498, global = 0.000118289, cumulative = 0.00292643
smoothSolver:  Solving for nuTilda, Initial residual = 0.000714168, Final residual = 5.86624e-06, No Iterations 2
bounding nuTilda, min: -1.96729e-06 max: 0.000385665 average: 4.01207e-05
ExecutionTime = 2.67 s  ClockTime = 3 s

Time = 66

smoothSolver:  Solving for Ux, Initial residual = 0.0030275, Final residual = 1.73251e-05, No Iterations 2
smoothSolver:  Solving for Uy, Initial residual = 0.00871979, Final residual = 1.70539e-05, No Iterations 2
GAMG:  Solving for p, Initial residual = 0.0110819, Final residual = 0.000710947, No Iterations 2
time step continuity errors : sum local = 0.000731758, global = 0.00011751, cumulative = 0.00304394
smoothSolver:  Solving for nuTilda, Initial residual = 0.000711838, Final residual = 5.85985e-06, No Iterations 2
bounding nuTilda, min: -4.5796e-06 max: 0.000391447 average: 4.07893e-05
ExecutionTime = 2.71 s  ClockTime = 3 s

Time = 67

smoothSolver:  Solving for Ux, Initial residual = 0.003009, Final residual = 1.73553e-05, No Iterations 2
smoothSolver:  Solving for Uy, Initial residual = 0.00862356, Final residual = 1.69374e-05, No Iterations 2
GAMG:  Solving for p, Initial residual = 0.0108536, Final residual = 0.00104674, No Iterations 1
time step continuity errors : sum local = 0.00108466, global = 0.000168513, cumulative = 0.00321245
smoothSolver:  Solving for nuTilda, Initial residual = 0.000709632, Final residual = 5.91216e-06, No Iterations 2
bounding nuTilda, min: -2.28954e-06 max: 0.000407168 average: 4.14495e-05
ExecutionTime = 2.74 s  ClockTime = 3 s

Time = 68

smoothSolver:  Solving for Ux, Initial residual = 0.00298407, Final residual = 1.71902e-05, No Iterations 2
smoothSolver:  Solving for Uy, Initial residual = 0.00853328, Final residual = 1.68638e-05, No Iterations 2
GAMG:  Solving for p, Initial residual = 0.0101898, Final residual = 0.000653823, No Iterations 2
time step continuity errors : sum local = 0.000677783, global = 0.000111545, cumulative = 0.003324
smoothSolver:  Solving for nuTilda, Initial residual = 0.000710843, Final residual = 5.93055e-06, No Iterations 2
bounding nuTilda, min: -3.82097e-06 max: 0.000422622 average: 4.21026e-05
ExecutionTime = 2.77 s  ClockTime = 3 s

Time = 69

smoothSolver:  Solving for Ux, Initial residual = 0.00296753, Final residual = 1.72121e-05, No Iterations 2
smoothSolver:  Solving for Uy, Initial residual = 0.00842379, Final residual = 1.64661e-05, No Iterations 2
GAMG:  Solving for p, Initial residual = 0.0100749, Final residual = 0.000538345, No Iterations 2
time step continuity errors : sum local = 0.000562064, global = 0.000102742, cumulative = 0.00342674
smoothSolver:  Solving for nuTilda, Initial residual = 0.000712162, Final residual = 5.98658e-06, No Iterations 2
bounding nuTilda, min: -1.98825e-06 max: 0.000437762 average: 4.27544e-05
ExecutionTime = 2.81 s  ClockTime = 3 s

Time = 70

smoothSolver:  Solving for Ux, Initial residual = 0.00295094, Final residual = 1.72192e-05, No Iterations 2
smoothSolver:  Solving for Uy, Initial residual = 0.00831575, Final residual = 1.61511e-05, No Iterations 2
GAMG:  Solving for p, Initial residual = 0.00985277, Final residual = 0.000922867, No Iterations 1
time step continuity errors : sum local = 0.00096807, global = 0.000101485, cumulative = 0.00352823
smoothSolver:  Solving for nuTilda, Initial residual = 0.000715205, Final residual = 6.05982e-06, No Iterations 2
bounding nuTilda, min: -3.74775e-06 max: 0.000452546 average: 4.34084e-05
ExecutionTime = 2.84 s  ClockTime = 3 s

Time = 71

smoothSolver:  Solving for Ux, Initial residual = 0.00292668, Final residual = 1.70478e-05, No Iterations 2
smoothSolver:  Solving for Uy, Initial residual = 0.0082243, Final residual = 1.59741e-05, No Iterations 2
GAMG:  Solving for p, Initial residual = 0.00931476, Final residual = 0.000425731, No Iterations 2
time step continuity errors : sum local = 0.000446673, global = 6.58704e-05, cumulative = 0.0035941
smoothSolver:  Solving for nuTilda, Initial residual = 0.000719384, Final residual = 6.14562e-06, No Iterations 2
bounding nuTilda, min: -1.88755e-06 max: 0.000466932 average: 4.40687e-05
ExecutionTime = 2.88 s  ClockTime = 3 s

Time = 72

smoothSolver:  Solving for Ux, Initial residual = 0.00291173, Final residual = 1.70477e-05, No Iterations 2
smoothSolver:  Solving for Uy, Initial residual = 0.00810868, Final residual = 1.55157e-05, No Iterations 2
GAMG:  Solving for p, Initial residual = 0.00912461, Final residual = 0.000911719, No Iterations 1
time step continuity errors : sum local = 0.00095809, global = 4.03673e-05, cumulative = 0.00363446
smoothSolver:  Solving for nuTilda, Initial residual = 0.000723286, Final residual = 6.22486e-06, No Iterations 2
bounding nuTilda, min: -3.87053e-06 max: 0.000480885 average: 4.47338e-05
ExecutionTime = 2.91 s  ClockTime = 3 s

Time = 73

smoothSolver:  Solving for Ux, Initial residual = 0.00289007, Final residual = 1.69097e-05, No Iterations 2
smoothSolver:  Solving for Uy, Initial residual = 0.00801547, Final residual = 1.52799e-05, No Iterations 2
GAMG:  Solving for p, Initial residual = 0.00871471, Final residual = 0.000434675, No Iterations 2
time step continuity errors : sum local = 0.000456675, global = 9.52797e-06, cumulative = 0.00364399
smoothSolver:  Solving for nuTilda, Initial residual = 0.000728605, Final residual = 6.31662e-06, No Iterations 2
bounding nuTilda, min: -2.2636e-06 max: 0.00049437 average: 4.54127e-05
ExecutionTime = 2.95 s  ClockTime = 3 s

Time = 74

smoothSolver:  Solving for Ux, Initial residual = 0.00287812, Final residual = 1.69151e-05, No Iterations 2
smoothSolver:  Solving for Uy, Initial residual = 0.0079017, Final residual = 1.48767e-05, No Iterations 2
GAMG:  Solving for p, Initial residual = 0.00862584, Final residual = 0.000414195, No Iterations 2
time step continuity errors : sum local = 0.000435008, global = -1.0892e-05, cumulative = 0.0036331
smoothSolver:  Solving for nuTilda, Initial residual = 0.000736059, Final residual = 6.42181e-06, No Iterations 2
bounding nuTilda, min: -3.92074e-06 max: 0.000507359 average: 4.61046e-05
ExecutionTime = 2.98 s  ClockTime = 3 s

Time = 75

smoothSolver:  Solving for Ux, Initial residual = 0.00286502, Final residual = 1.68907e-05, No Iterations 2
smoothSolver:  Solving for Uy, Initial residual = 0.00779871, Final residual = 1.4592e-05, No Iterations 2
GAMG:  Solving for p, Initial residual = 0.00851966, Final residual = 0.000813619, No Iterations 1
time step continuity errors : sum local = 0.000852817, global = -4.32974e-05, cumulative = 0.0035898
smoothSolver:  Solving for nuTilda, Initial residual = 0.000744834, Final residual = 6.50495e-06, No Iterations 2
bounding nuTilda, min: -4.39371e-06 max: 0.00051983 average: 4.68092e-05
ExecutionTime = 3.02 s  ClockTime = 3 s

Time = 76

smoothSolver:  Solving for Ux, Initial residual = 0.00284305, Final residual = 1.67153e-05, No Iterations 2
smoothSolver:  Solving for Uy, Initial residual = 0.00771402, Final residual = 1.44143e-05, No Iterations 2
GAMG:  Solving for p, Initial residual = 0.00814988, Final residual = 0.000428138, No Iterations 2
time step continuity errors : sum local = 0.000448086, global = -4.11147e-05, cumulative = 0.00354869
smoothSolver:  Solving for nuTilda, Initial residual = 0.000749601, Final residual = 6.6134e-06, No Iterations 2
bounding nuTilda, min: -3.92834e-06 max: 0.000532543 average: 4.75337e-05
ExecutionTime = 3.05 s  ClockTime = 3 s

Time = 77

smoothSolver:  Solving for Ux, Initial residual = 0.00282759, Final residual = 1.66522e-05, No Iterations 2
smoothSolver:  Solving for Uy, Initial residual = 0.0076212, Final residual = 1.4103e-05, No Iterations 2
GAMG:  Solving for p, Initial residual = 0.00814275, Final residual = 0.000778432, No Iterations 1
time step continuity errors : sum local = 0.000810928, global = -7.52651e-05, cumulative = 0.00347342
smoothSolver:  Solving for nuTilda, Initial residual = 0.000758383, Final residual = 6.74389e-06, No Iterations 2
bounding nuTilda, min: -3.24186e-06 max: 0.000544702 average: 4.82742e-05
ExecutionTime = 3.09 s  ClockTime = 3 s

Time = 78

smoothSolver:  Solving for Ux, Initial residual = 0.0028051, Final residual = 1.64661e-05, No Iterations 2
smoothSolver:  Solving for Uy, Initial residual = 0.00753936, Final residual = 1.39306e-05, No Iterations 2
GAMG:  Solving for p, Initial residual = 0.00782647, Final residual = 0.000425391, No Iterations 2
time step continuity errors : sum local = 0.000442265, global = -5.13917e-05, cumulative = 0.00342203
smoothSolver:  Solving for nuTilda, Initial residual = 0.00076852, Final residual = 6.87922e-06, No Iterations 2
bounding nuTilda, min: -3.95369e-06 max: 0.000556282 average: 4.9039e-05
ExecutionTime = 3.12 s  ClockTime = 3 s

Time = 79

smoothSolver:  Solving for Ux, Initial residual = 0.00278775, Final residual = 1.63986e-05, No Iterations 2
smoothSolver:  Solving for Uy, Initial residual = 0.00745003, Final residual = 1.36021e-05, No Iterations 2
GAMG:  Solving for p, Initial residual = 0.00786284, Final residual = 0.000743766, No Iterations 1
time step continuity errors : sum local = 0.000768724, global = -7.9537e-05, cumulative = 0.00334249
smoothSolver:  Solving for nuTilda, Initial residual = 0.000777174, Final residual = 7.00231e-06, No Iterations 2
bounding nuTilda, min: -2.00397e-06 max: 0.000567245 average: 4.98243e-05
ExecutionTime = 3.15 s  ClockTime = 3 s

Time = 80

smoothSolver:  Solving for Ux, Initial residual = 0.00276472, Final residual = 1.62151e-05, No Iterations 2
smoothSolver:  Solving for Uy, Initial residual = 0.00736756, Final residual = 1.34272e-05, No Iterations 2
GAMG:  Solving for p, Initial residual = 0.00755961, Final residual = 0.000376581, No Iterations 2
time step continuity errors : sum local = 0.000388429, global = -4.85584e-05, cumulative = 0.00329393
smoothSolver:  Solving for nuTilda, Initial residual = 0.000787875, Final residual = 7.12322e-06, No Iterations 2
bounding nuTilda, min: -4.00587e-06 max: 0.000577626 average: 5.06361e-05
ExecutionTime = 3.19 s  ClockTime = 3 s

Time = 81

smoothSolver:  Solving for Ux, Initial residual = 0.00274633, Final residual = 1.61385e-05, No Iterations 2
smoothSolver:  Solving for Uy, Initial residual = 0.00727426, Final residual = 1.30649e-05, No Iterations 2
GAMG:  Solving for p, Initial residual = 0.00757018, Final residual = 0.000705859, No Iterations 1
time step continuity errors : sum local = 0.000724474, global = -6.05312e-05, cumulative = 0.0032334
smoothSolver:  Solving for nuTilda, Initial residual = 0.000793927, Final residual = 7.25724e-06, No Iterations 2
bounding nuTilda, min: -2.06423e-06 max: 0.000587476 average: 5.14712e-05
ExecutionTime = 3.22 s  ClockTime = 3 s

Time = 82

smoothSolver:  Solving for Ux, Initial residual = 0.00272322, Final residual = 1.59525e-05, No Iterations 2
smoothSolver:  Solving for Uy, Initial residual = 0.0071913, Final residual = 1.28966e-05, No Iterations 2
GAMG:  Solving for p, Initial residual = 0.00727731, Final residual = 0.00031328, No Iterations 2
time step continuity errors : sum local = 0.000320965, global = -3.23835e-05, cumulative = 0.00320102
smoothSolver:  Solving for nuTilda, Initial residual = 0.00080166, Final residual = 7.40376e-06, No Iterations 2
bounding nuTilda, min: -4.07423e-06 max: 0.000596847 average: 5.2331e-05
ExecutionTime = 3.26 s  ClockTime = 3 s

Time = 83

smoothSolver:  Solving for Ux, Initial residual = 0.00270452, Final residual = 1.58678e-05, No Iterations 2
smoothSolver:  Solving for Uy, Initial residual = 0.00709434, Final residual = 1.25449e-05, No Iterations 2
GAMG:  Solving for p, Initial residual = 0.0072443, Final residual = 0.000673322, No Iterations 1
time step continuity errors : sum local = 0.000687657, global = -2.75112e-05, cumulative = 0.00317351
smoothSolver:  Solving for nuTilda, Initial residual = 0.000811175, Final residual = 7.54467e-06, No Iterations 2
bounding nuTilda, min: -2.22601e-06 max: 0.000605799 average: 5.32205e-05
ExecutionTime = 3.29 s  ClockTime = 3 s

Time = 84

smoothSolver:  Solving for Ux, Initial residual = 0.00268202, Final residual = 1.56894e-05, No Iterations 2
smoothSolver:  Solving for Uy, Initial residual = 0.00701163, Final residual = 1.23981e-05, No Iterations 2
GAMG:  Solving for p, Initial residual = 0.00698265, Final residual = 0.000285384, No Iterations 2
time step continuity errors : sum local = 0.000291032, global = -7.08732e-06, cumulative = 0.00316642
smoothSolver:  Solving for nuTilda, Initial residual = 0.000820817, Final residual = 7.69892e-06, No Iterations 2
bounding nuTilda, min: -4.14569e-06 max: 0.000623307 average: 5.41415e-05
ExecutionTime = 3.33 s  ClockTime = 3 s

Time = 85

smoothSolver:  Solving for Ux, Initial residual = 0.0026634, Final residual = 1.56143e-05, No Iterations 2
smoothSolver:  Solving for Uy, Initial residual = 0.00691395, Final residual = 1.20839e-05, No Iterations 2
GAMG:  Solving for p, Initial residual = 0.00693766, Final residual = 0.000652752, No Iterations 1
time step continuity errors : sum local = 0.00066475, global = 8.0504e-06, cumulative = 0.00317447
smoothSolver:  Solving for nuTilda, Initial residual = 0.000838665, Final residual = 7.83914e-06, No Iterations 2
bounding nuTilda, min: -2.05922e-06 max: 0.000647942 average: 5.50946e-05
ExecutionTime = 3.36 s  ClockTime = 3 s

Time = 86

smoothSolver:  Solving for Ux, Initial residual = 0.00264155, Final residual = 1.54433e-05, No Iterations 2
smoothSolver:  Solving for Uy, Initial residual = 0.00683196, Final residual = 1.19632e-05, No Iterations 2
GAMG:  Solving for p, Initial residual = 0.00671019, Final residual = 0.000297821, No Iterations 2
time step continuity errors : sum local = 0.000302988, global = 2.37672e-05, cumulative = 0.00319824
smoothSolver:  Solving for nuTilda, Initial residual = 0.000854172, Final residual = 8.01032e-06, No Iterations 2
bounding nuTilda, min: -4.2143e-06 max: 0.00067371 average: 5.60831e-05
ExecutionTime = 3.4 s  ClockTime = 3 s

Time = 87

smoothSolver:  Solving for Ux, Initial residual = 0.00262297, Final residual = 1.53663e-05, No Iterations 2
smoothSolver:  Solving for Uy, Initial residual = 0.00673661, Final residual = 1.16943e-05, No Iterations 2
GAMG:  Solving for p, Initial residual = 0.00668756, Final residual = 0.000639864, No Iterations 1
time step continuity errors : sum local = 0.000650763, global = 4.13178e-05, cumulative = 0.00323956
smoothSolver:  Solving for nuTilda, Initial residual = 0.000862688, Final residual = 8.16688e-06, No Iterations 2
bounding nuTilda, min: -3.75735e-06 max: 0.000699942 average: 5.71033e-05
ExecutionTime = 3.43 s  ClockTime = 3 s

Time = 88

smoothSolver:  Solving for Ux, Initial residual = 0.00260174, Final residual = 1.52025e-05, No Iterations 2
smoothSolver:  Solving for Uy, Initial residual = 0.00665573, Final residual = 1.15943e-05, No Iterations 2
GAMG:  Solving for p, Initial residual = 0.00648034, Final residual = 0.000321654, No Iterations 2
time step continuity errors : sum local = 0.000326921, global = 4.6954e-05, cumulative = 0.00328651
smoothSolver:  Solving for nuTilda, Initial residual = 0.000873771, Final residual = 8.32006e-06, No Iterations 2
bounding nuTilda, min: -4.27474e-06 max: 0.000725867 average: 5.81599e-05
ExecutionTime = 3.47 s  ClockTime = 3 s

Time = 89

smoothSolver:  Solving for Ux, Initial residual = 0.00258309, Final residual = 1.51288e-05, No Iterations 2
smoothSolver:  Solving for Uy, Initial residual = 0.00656421, Final residual = 1.13506e-05, No Iterations 2
GAMG:  Solving for p, Initial residual = 0.00648218, Final residual = 0.000627355, No Iterations 1
time step continuity errors : sum local = 0.000638168, global = 6.45867e-05, cumulative = 0.0033511
smoothSolver:  Solving for nuTilda, Initial residual = 0.000878958, Final residual = 8.47435e-06, No Iterations 2
bounding nuTilda, min: -2.33915e-06 max: 0.000753365 average: 5.9252e-05
ExecutionTime = 3.5 s  ClockTime = 3 s

Time = 90

smoothSolver:  Solving for Ux, Initial residual = 0.00256248, Final residual = 1.49608e-05, No Iterations 2
smoothSolver:  Solving for Uy, Initial residual = 0.00648459, Final residual = 1.12617e-05, No Iterations 2
GAMG:  Solving for p, Initial residual = 0.00628846, Final residual = 0.000348499, No Iterations 2
time step continuity errors : sum local = 0.000354398, global = 5.45458e-05, cumulative = 0.00340564
smoothSolver:  Solving for nuTilda, Initial residual = 0.000893579, Final residual = 8.6203e-06, No Iterations 2
bounding nuTilda, min: -4.31887e-06 max: 0.000780541 average: 6.03846e-05
ExecutionTime = 3.53 s  ClockTime = 3 s

Time = 91

smoothSolver:  Solving for Ux, Initial residual = 0.00254352, Final residual = 1.48784e-05, No Iterations 2
smoothSolver:  Solving for Uy, Initial residual = 0.0063969, Final residual = 1.10219e-05, No Iterations 2
GAMG:  Solving for p, Initial residual = 0.0063147, Final residual = 0.0006099, No Iterations 1
time step continuity errors : sum local = 0.000621549, global = 7.18512e-05, cumulative = 0.00347749
smoothSolver:  Solving for nuTilda, Initial residual = 0.000900994, Final residual = 8.77489e-06, No Iterations 2
bounding nuTilda, min: -2.62547e-06 max: 0.000807297 average: 6.15569e-05
ExecutionTime = 3.57 s  ClockTime = 4 s

Time = 92

smoothSolver:  Solving for Ux, Initial residual = 0.00252356, Final residual = 1.47062e-05, No Iterations 2
smoothSolver:  Solving for Uy, Initial residual = 0.00631835, Final residual = 1.09376e-05, No Iterations 2
GAMG:  Solving for p, Initial residual = 0.00612155, Final residual = 0.000338747, No Iterations 2
time step continuity errors : sum local = 0.000345178, global = 5.43625e-05, cumulative = 0.00353186
smoothSolver:  Solving for nuTilda, Initial residual = 0.000918557, Final residual = 8.96174e-06, No Iterations 2
bounding nuTilda, min: -4.69383e-06 max: 0.000833541 average: 6.27728e-05
ExecutionTime = 3.6 s  ClockTime = 4 s

Time = 93

smoothSolver:  Solving for Ux, Initial residual = 0.00250479, Final residual = 1.46176e-05, No Iterations 2
smoothSolver:  Solving for Uy, Initial residual = 0.00623232, Final residual = 1.06968e-05, No Iterations 2
GAMG:  Solving for p, Initial residual = 0.00614642, Final residual = 0.000588332, No Iterations 1
time step continuity errors : sum local = 0.000600877, global = 6.3714e-05, cumulative = 0.00359557
smoothSolver:  Solving for nuTilda, Initial residual = 0.000930776, Final residual = 9.12202e-06, No Iterations 2
bounding nuTilda, min: -2.22493e-06 max: 0.00085919 average: 6.40311e-05
ExecutionTime = 3.64 s  ClockTime = 4 s

Time = 94

smoothSolver:  Solving for Ux, Initial residual = 0.00248573, Final residual = 1.44468e-05, No Iterations 2
smoothSolver:  Solving for Uy, Initial residual = 0.00615399, Final residual = 1.06182e-05, No Iterations 2
GAMG:  Solving for p, Initial residual = 0.00594762, Final residual = 0.00029789, No Iterations 2
time step continuity errors : sum local = 0.00030422, global = 4.90331e-05, cumulative = 0.0036446
smoothSolver:  Solving for nuTilda, Initial residual = 0.000938393, Final residual = 9.27334e-06, No Iterations 2
bounding nuTilda, min: -4.33398e-06 max: 0.000884167 average: 6.5336e-05
ExecutionTime = 3.67 s  ClockTime = 4 s

Time = 95

smoothSolver:  Solving for Ux, Initial residual = 0.00246768, Final residual = 1.43577e-05, No Iterations 2
smoothSolver:  Solving for Uy, Initial residual = 0.0060671, Final residual = 1.03741e-05, No Iterations 2
GAMG:  Solving for p, Initial residual = 0.00594666, Final residual = 0.000566567, No Iterations 1
time step continuity errors : sum local = 0.000579423, global = 4.60322e-05, cumulative = 0.00369064
smoothSolver:  Solving for nuTilda, Initial residual = 0.000957691, Final residual = 9.43124e-06, No Iterations 2
bounding nuTilda, min: -2.32667e-06 max: 0.000908409 average: 6.66897e-05
ExecutionTime = 3.71 s  ClockTime = 4 s

Time = 96

smoothSolver:  Solving for Ux, Initial residual = 0.00244969, Final residual = 1.41967e-05, No Iterations 2
smoothSolver:  Solving for Uy, Initial residual = 0.00598804, Final residual = 1.02898e-05, No Iterations 2
GAMG:  Solving for p, Initial residual = 0.00575917, Final residual = 0.000268877, No Iterations 2
time step continuity errors : sum local = 0.00027495, global = 3.27376e-05, cumulative = 0.00372337
smoothSolver:  Solving for nuTilda, Initial residual = 0.000966163, Final residual = 9.5941e-06, No Iterations 2
bounding nuTilda, min: -4.3081e-06 max: 0.000931864 average: 6.80927e-05
ExecutionTime = 3.74 s  ClockTime = 4 s

Time = 97

smoothSolver:  Solving for Ux, Initial residual = 0.00243277, Final residual = 1.41114e-05, No Iterations 2
smoothSolver:  Solving for Uy, Initial residual = 0.00589973, Final residual = 1.0047e-05, No Iterations 2
GAMG:  Solving for p, Initial residual = 0.00575286, Final residual = 0.000549114, No Iterations 1
time step continuity errors : sum local = 0.00056191, global = 2.3027e-05, cumulative = 0.0037464
smoothSolver:  Solving for nuTilda, Initial residual = 0.00097627, Final residual = 9.75603e-06, No Iterations 2
bounding nuTilda, min: -3.70277e-06 max: 0.000956223 average: 6.95445e-05
ExecutionTime = 3.78 s  ClockTime = 4 s

Time = 98

smoothSolver:  Solving for Ux, Initial residual = 0.00241607, Final residual = 1.39587e-05, No Iterations 2
smoothSolver:  Solving for Uy, Initial residual = 0.00582018, Final residual = 9.96204e-06, No Iterations 2
GAMG:  Solving for p, Initial residual = 0.00558317, Final residual = 0.000248973, No Iterations 2
time step continuity errors : sum local = 0.000254723, global = 1.24859e-05, cumulative = 0.00375889
smoothSolver:  Solving for nuTilda, Initial residual = 0.000990532, Final residual = 9.92519e-06, No Iterations 2
bounding nuTilda, min: -4.27244e-06 max: 0.000980589 average: 7.10493e-05
ExecutionTime = 3.81 s  ClockTime = 4 s

Time = 99

smoothSolver:  Solving for Ux, Initial residual = 0.00240056, Final residual = 1.38783e-05, No Iterations 2
smoothSolver:  Solving for Uy, Initial residual = 0.0057316, Final residual = 9.73284e-06, No Iterations 2
GAMG:  Solving for p, Initial residual = 0.00557971, Final residual = 0.000534834, No Iterations 1
time step continuity errors : sum local = 0.000547153, global = -9.14817e-07, cumulative = 0.00375797
smoothSolver:  Solving for nuTilda, Initial residual = 0.00100517, Final residual = 1.0096e-05, No Iterations 2
bounding nuTilda, min: -2.71191e-06 max: 0.00100416 average: 7.26079e-05
ExecutionTime = 3.85 s  ClockTime = 4 s

Time = 100

smoothSolver:  Solving for Ux, Initial residual = 0.00238536, Final residual = 1.37324e-05, No Iterations 2
smoothSolver:  Solving for Uy, Initial residual = 0.00565227, Final residual = 9.65295e-06, No Iterations 2
GAMG:  Solving for p, Initial residual = 0.00542246, Final residual = 0.000235906, No Iterations 2
time step continuity errors : sum local = 0.000241231, global = -2.8389e-06, cumulative = 0.00375513
smoothSolver:  Solving for nuTilda, Initial residual = 0.00101256, Final residual = 1.02387e-05, No Iterations 2
bounding nuTilda, min: -4.23914e-06 max: 0.00102688 average: 7.42253e-05
ExecutionTime = 3.98 s  ClockTime = 4 s

Time = 101

smoothSolver:  Solving for Ux, Initial residual = 0.00237135, Final residual = 1.36552e-05, No Iterations 2
smoothSolver:  Solving for Uy, Initial residual = 0.0055655, Final residual = 9.44273e-06, No Iterations 2
GAMG:  Solving for p, Initial residual = 0.00542695, Final residual = 0.000521104, No Iterations 1
time step continuity errors : sum local = 0.000532194, global = -1.75266e-05, cumulative = 0.00373761
smoothSolver:  Solving for nuTilda, Initial residual = 0.00103374, Final residual = 1.04018e-05, No Iterations 2
bounding nuTilda, min: -3.03744e-06 max: 0.00104875 average: 7.59015e-05
ExecutionTime = 4.02 s  ClockTime = 4 s

Time = 102

smoothSolver:  Solving for Ux, Initial residual = 0.00235765, Final residual = 1.35191e-05, No Iterations 2
smoothSolver:  Solving for Uy, Initial residual = 0.00548743, Final residual = 9.36991e-06, No Iterations 2
GAMG:  Solving for p, Initial residual = 0.00527693, Final residual = 0.000233089, No Iterations 2
time step continuity errors : sum local = 0.000237857, global = -1.27132e-05, cumulative = 0.00372489
smoothSolver:  Solving for nuTilda, Initial residual = 0.00103743, Final residual = 1.05652e-05, No Iterations 2
bounding nuTilda, min: -4.23719e-06 max: 0.00106973 average: 7.76369e-05
ExecutionTime = 4.05 s  ClockTime = 4 s

Time = 103

smoothSolver:  Solving for Ux, Initial residual = 0.0023447, Final residual = 1.34443e-05, No Iterations 2
smoothSolver:  Solving for Uy, Initial residual = 0.00540357, Final residual = 9.17429e-06, No Iterations 2
GAMG:  Solving for p, Initial residual = 0.0052931, Final residual = 0.000506132, No Iterations 1
time step continuity errors : sum local = 0.000515481, global = -2.55579e-05, cumulative = 0.00369934
smoothSolver:  Solving for nuTilda, Initial residual = 0.00104454, Final residual = 1.07225e-05, No Iterations 2
bounding nuTilda, min: -3.51424e-06 max: 0.00108983 average: 7.94334e-05
ExecutionTime = 4.09 s  ClockTime = 4 s

Time = 104

smoothSolver:  Solving for Ux, Initial residual = 0.00233175, Final residual = 1.33106e-05, No Iterations 2
smoothSolver:  Solving for Uy, Initial residual = 0.00532736, Final residual = 9.11096e-06, No Iterations 2
GAMG:  Solving for p, Initial residual = 0.00514034, Final residual = 0.000226065, No Iterations 2
time step continuity errors : sum local = 0.000230026, global = -1.4777e-05, cumulative = 0.00368456
smoothSolver:  Solving for nuTilda, Initial residual = 0.00105823, Final residual = 1.08895e-05, No Iterations 2
bounding nuTilda, min: -4.24928e-06 max: 0.00110905 average: 8.12949e-05
ExecutionTime = 4.12 s  ClockTime = 4 s

Time = 105

smoothSolver:  Solving for Ux, Initial residual = 0.00231898, Final residual = 1.32385e-05, No Iterations 2
smoothSolver:  Solving for Uy, Initial residual = 0.00524635, Final residual = 8.92095e-06, No Iterations 2
GAMG:  Solving for p, Initial residual = 0.00514963, Final residual = 0.000490206, No Iterations 1
time step continuity errors : sum local = 0.000497741, global = -2.28516e-05, cumulative = 0.00366171
smoothSolver:  Solving for nuTilda, Initial residual = 0.00107031, Final residual = 1.10304e-05, No Iterations 2
bounding nuTilda, min: -4.02868e-06 max: 0.00112741 average: 8.3225e-05
ExecutionTime = 4.16 s  ClockTime = 4 s

Time = 106

smoothSolver:  Solving for Ux, Initial residual = 0.00230641, Final residual = 1.31062e-05, No Iterations 2
smoothSolver:  Solving for Uy, Initial residual = 0.00517229, Final residual = 8.85951e-06, No Iterations 2
GAMG:  Solving for p, Initial residual = 0.00499461, Final residual = 0.000212976, No Iterations 2
time step continuity errors : sum local = 0.000216052, global = -9.8983e-06, cumulative = 0.00365181
smoothSolver:  Solving for nuTilda, Initial residual = 0.0010803, Final residual = 1.12014e-05, No Iterations 2
bounding nuTilda, min: -4.33301e-06 max: 0.00114511 average: 8.52213e-05
ExecutionTime = 4.19 s  ClockTime = 4 s

Time = 107

smoothSolver:  Solving for Ux, Initial residual = 0.0022937, Final residual = 1.30388e-05, No Iterations 2
smoothSolver:  Solving for Uy, Initial residual = 0.00509372, Final residual = 8.66577e-06, No Iterations 2
GAMG:  Solving for p, Initial residual = 0.00499716, Final residual = 0.000476302, No Iterations 1
time step continuity errors : sum local = 0.000482332, global = -1.12205e-05, cumulative = 0.00364059
smoothSolver:  Solving for nuTilda, Initial residual = 0.00108836, Final residual = 1.13746e-05, No Iterations 2
bounding nuTilda, min: -4.67186e-06 max: 0.00116212 average: 8.729e-05
ExecutionTime = 4.22 s  ClockTime = 4 s

Time = 108

smoothSolver:  Solving for Ux, Initial residual = 0.00228126, Final residual = 1.29091e-05, No Iterations 2
smoothSolver:  Solving for Uy, Initial residual = 0.00502226, Final residual = 8.60666e-06, No Iterations 2
GAMG:  Solving for p, Initial residual = 0.00485018, Final residual = 0.000205695, No Iterations 2
time step continuity errors : sum local = 0.000208132, global = 4.1295e-07, cumulative = 0.003641
smoothSolver:  Solving for nuTilda, Initial residual = 0.00111498, Final residual = 1.15267e-05, No Iterations 2
bounding nuTilda, min: -5.05029e-06 max: 0.00118774 average: 8.9434e-05
ExecutionTime = 4.26 s  ClockTime = 4 s

Time = 109

smoothSolver:  Solving for Ux, Initial residual = 0.00226846, Final residual = 1.28371e-05, No Iterations 2
smoothSolver:  Solving for Uy, Initial residual = 0.00494653, Final residual = 8.41822e-06, No Iterations 2
GAMG:  Solving for p, Initial residual = 0.00484871, Final residual = 0.000465722, No Iterations 1
time step continuity errors : sum local = 0.000470611, global = 5.4098e-06, cumulative = 0.00364641
smoothSolver:  Solving for nuTilda, Initial residual = 0.00112028, Final residual = 1.16872e-05, No Iterations 2
bounding nuTilda, min: -5.43021e-06 max: 0.00121468 average: 9.1652e-05
ExecutionTime = 4.29 s  ClockTime = 4 s

Time = 110

smoothSolver:  Solving for Ux, Initial residual = 0.00225593, Final residual = 1.27084e-05, No Iterations 2
smoothSolver:  Solving for Uy, Initial residual = 0.0048781, Final residual = 8.36546e-06, No Iterations 2
GAMG:  Solving for p, Initial residual = 0.00471415, Final residual = 0.000210317, No Iterations 2
time step continuity errors : sum local = 0.00021236, global = 1.14991e-05, cumulative = 0.00365791
smoothSolver:  Solving for nuTilda, Initial residual = 0.00113353, Final residual = 1.18425e-05, No Iterations 2
bounding nuTilda, min: -5.8953e-06 max: 0.00124297 average: 9.39476e-05
ExecutionTime = 4.33 s  ClockTime = 4 s

Time = 111

smoothSolver:  Solving for Ux, Initial residual = 0.0022427, Final residual = 1.26369e-05, No Iterations 2
smoothSolver:  Solving for Uy, Initial residual = 0.00480601, Final residual = 8.18676e-06, No Iterations 2
GAMG:  Solving for p, Initial residual = 0.0047172, Final residual = 0.000457467, No Iterations 1
time step continuity errors : sum local = 0.000461706, global = 2.07913e-05, cumulative = 0.0036787
smoothSolver:  Solving for nuTilda, Initial residual = 0.00114577, Final residual = 1.19963e-05, No Iterations 2
bounding nuTilda, min: -6.31653e-06 max: 0.00127351 average: 9.63252e-05
ExecutionTime = 4.36 s  ClockTime = 4 s

Time = 112

smoothSolver:  Solving for Ux, Initial residual = 0.00222925, Final residual = 1.25097e-05, No Iterations 2
smoothSolver:  Solving for Uy, Initial residual = 0.00474075, Final residual = 8.137e-06, No Iterations 2
GAMG:  Solving for p, Initial residual = 0.00460082, Final residual = 0.000216007, No Iterations 2
time step continuity errors : sum local = 0.000217906, global = 2.31388e-05, cumulative = 0.00370184
smoothSolver:  Solving for nuTilda, Initial residual = 0.00116638, Final residual = 1.21453e-05, No Iterations 2
bounding nuTilda, min: -6.82274e-06 max: 0.00130892 average: 9.87829e-05
ExecutionTime = 4.4 s  ClockTime = 4 s

Time = 113

smoothSolver:  Solving for Ux, Initial residual = 0.00221477, Final residual = 1.24388e-05, No Iterations 2
smoothSolver:  Solving for Uy, Initial residual = 0.00467316, Final residual = 7.96839e-06, No Iterations 2
GAMG:  Solving for p, Initial residual = 0.00461466, Final residual = 0.000447602, No Iterations 1
time step continuity errors : sum local = 0.000451583, global = 3.33331e-05, cumulative = 0.00373517
smoothSolver:  Solving for nuTilda, Initial residual = 0.00117931, Final residual = 1.23109e-05, No Iterations 2
bounding nuTilda, min: -7.27254e-06 max: 0.00134455 average: 0.000101326
ExecutionTime = 4.43 s  ClockTime = 4 s

Time = 114

smoothSolver:  Solving for Ux, Initial residual = 0.00220014, Final residual = 1.23085e-05, No Iterations 2
smoothSolver:  Solving for Uy, Initial residual = 0.00461122, Final residual = 7.92325e-06, No Iterations 2
GAMG:  Solving for p, Initial residual = 0.00451081, Final residual = 0.000218892, No Iterations 2
time step continuity errors : sum local = 0.000220777, global = 3.08774e-05, cumulative = 0.00376605
smoothSolver:  Solving for nuTilda, Initial residual = 0.00118679, Final residual = 1.24642e-05, No Iterations 2
bounding nuTilda, min: -7.79069e-06 max: 0.00138132 average: 0.000103959
ExecutionTime = 4.47 s  ClockTime = 4 s

Time = 115

smoothSolver:  Solving for Ux, Initial residual = 0.00218447, Final residual = 1.22335e-05, No Iterations 2
smoothSolver:  Solving for Uy, Initial residual = 0.00454809, Final residual = 7.76463e-06, No Iterations 2
GAMG:  Solving for p, Initial residual = 0.00452304, Final residual = 0.000434897, No Iterations 1
time step continuity errors : sum local = 0.000438888, global = 4.02455e-05, cumulative = 0.0038063
smoothSolver:  Solving for nuTilda, Initial residual = 0.00119323, Final residual = 1.26201e-05, No Iterations 2
bounding nuTilda, min: -8.31091e-06 max: 0.00141742 average: 0.000106677
ExecutionTime = 4.5 s  ClockTime = 4 s

Time = 116

smoothSolver:  Solving for Ux, Initial residual = 0.002169, Final residual = 1.21019e-05, No Iterations 2
smoothSolver:  Solving for Uy, Initial residual = 0.00448936, Final residual = 7.72357e-06, No Iterations 2
GAMG:  Solving for p, Initial residual = 0.00442114, Final residual = 0.000215624, No Iterations 2
time step continuity errors : sum local = 0.000217574, global = 3.40526e-05, cumulative = 0.00384035
smoothSolver:  Solving for nuTilda, Initial residual = 0.00120765, Final residual = 1.27478e-05, No Iterations 2
bounding nuTilda, min: -8.72545e-06 max: 0.00145277 average: 0.000109489
ExecutionTime = 4.54 s  ClockTime = 4 s

Time = 117

smoothSolver:  Solving for Ux, Initial residual = 0.00215239, Final residual = 1.20246e-05, No Iterations 2
smoothSolver:  Solving for Uy, Initial residual = 0.00443001, Final residual = 7.56798e-06, No Iterations 2
GAMG:  Solving for p, Initial residual = 0.00442732, Final residual = 0.00041995, No Iterations 1
time step continuity errors : sum local = 0.000424094, global = 4.11096e-05, cumulative = 0.00388146
smoothSolver:  Solving for nuTilda, Initial residual = 0.00121422, Final residual = 1.28967e-05, No Iterations 2
bounding nuTilda, min: -9.22856e-06 max: 0.00148731 average: 0.000112396
ExecutionTime = 4.57 s  ClockTime = 4 s

Time = 118

smoothSolver:  Solving for Ux, Initial residual = 0.00213604, Final residual = 1.18958e-05, No Iterations 2
smoothSolver:  Solving for Uy, Initial residual = 0.00437421, Final residual = 7.52707e-06, No Iterations 2
GAMG:  Solving for p, Initial residual = 0.00432263, Final residual = 0.000206124, No Iterations 2
time step continuity errors : sum local = 0.000208145, global = 3.29475e-05, cumulative = 0.00391441
smoothSolver:  Solving for nuTilda, Initial residual = 0.00122559, Final residual = 1.30325e-05, No Iterations 2
bounding nuTilda, min: -9.6982e-06 max: 0.00152099 average: 0.000115401
ExecutionTime = 4.6 s  ClockTime = 5 s

Time = 119

smoothSolver:  Solving for Ux, Initial residual = 0.00211862, Final residual = 1.18168e-05, No Iterations 2
smoothSolver:  Solving for Uy, Initial residual = 0.00431769, Final residual = 7.37262e-06, No Iterations 2
GAMG:  Solving for p, Initial residual = 0.0043174, Final residual = 0.000404587, No Iterations 1
time step continuity errors : sum local = 0.000408888, global = 3.67857e-05, cumulative = 0.00395119
smoothSolver:  Solving for nuTilda, Initial residual = 0.00123464, Final residual = 1.31847e-05, No Iterations 2
bounding nuTilda, min: -1.01651e-05 max: 0.00155575 average: 0.000118504
ExecutionTime = 4.64 s  ClockTime = 5 s

Time = 120

smoothSolver:  Solving for Ux, Initial residual = 0.00210158, Final residual = 1.16873e-05, No Iterations 2
smoothSolver:  Solving for Uy, Initial residual = 0.00426466, Final residual = 7.33173e-06, No Iterations 2
GAMG:  Solving for p, Initial residual = 0.0042157, Final residual = 0.000193751, No Iterations 2
time step continuity errors : sum local = 0.000195798, global = 2.81619e-05, cumulative = 0.00397935
smoothSolver:  Solving for nuTilda, Initial residual = 0.00125619, Final residual = 1.33256e-05, No Iterations 2
bounding nuTilda, min: -1.04342e-05 max: 0.00159118 average: 0.00012171
ExecutionTime = 4.67 s  ClockTime = 5 s

Time = 121

smoothSolver:  Solving for Ux, Initial residual = 0.0020836, Final residual = 1.16063e-05, No Iterations 2
smoothSolver:  Solving for Uy, Initial residual = 0.00421067, Final residual = 7.17946e-06, No Iterations 2
GAMG:  Solving for p, Initial residual = 0.00420323, Final residual = 0.00039036, No Iterations 1
time step continuity errors : sum local = 0.000394733, global = 2.88277e-05, cumulative = 0.00400818
smoothSolver:  Solving for nuTilda, Initial residual = 0.00126442, Final residual = 1.34575e-05, No Iterations 2
bounding nuTilda, min: -1.08372e-05 max: 0.00162848 average: 0.00012502
ExecutionTime = 4.71 s  ClockTime = 5 s

Time = 122

[...]
smoothSolver:  Solving for Uy, Initial residual = 0.00180757, Final residual = 0.000173451, No Iterations 2
GAMG:  Solving for p, Initial residual = 0.00327005, Final residual = 0.000134931, No Iterations 2
time step continuity errors : sum local = 0.000556608, global = 1.26337e-05, cumulative = 0.0102868
smoothSolver:  Solving for nuTilda, Initial residual = 0.0113247, Final residual = 0.000265963, No Iterations 2
bounding nuTilda, min: -0.000685073 max: 36.1216 average: 0.365257
ExecutionTime = 17.63 s  ClockTime = 18 s

Time = 471

smoothSolver:  Solving for Ux, Initial residual = 0.000967469, Final residual = 7.87381e-05, No Iterations 2
smoothSolver:  Solving for Uy, Initial residual = 0.00180565, Final residual = 0.000173479, No Iterations 2
GAMG:  Solving for p, Initial residual = 0.00322957, Final residual = 0.00013356, No Iterations 2
time step continuity errors : sum local = 0.000558471, global = 1.2464e-05, cumulative = 0.0102993
smoothSolver:  Solving for nuTilda, Initial residual = 0.0113268, Final residual = 0.000266035, No Iterations 2
bounding nuTilda, min: -0.000430101 max: 36.9163 average: 0.372772
ExecutionTime = 17.66 s  ClockTime = 18 s

Time = 472

smoothSolver:  Solving for Ux, Initial residual = 0.000964677, Final residual = 7.85827e-05, No Iterations 2
smoothSolver:  Solving for Uy, Initial residual = 0.00180357, Final residual = 0.000173495, No Iterations 2
GAMG:  Solving for p, Initial residual = 0.00319406, Final residual = 0.000132299, No Iterations 2
time step continuity errors : sum local = 0.00056078, global = 1.23057e-05, cumulative = 0.0103116
smoothSolver:  Solving for nuTilda, Initial residual = 0.0113289, Final residual = 0.000266107, No Iterations 2
bounding nuTilda, min: -0.000138394 max: 37.7285 average: 0.380446
ExecutionTime = 17.7 s  ClockTime = 18 s

Time = 473

smoothSolver:  Solving for Ux, Initial residual = 0.000961819, Final residual = 7.84283e-05, No Iterations 2
smoothSolver:  Solving for Uy, Initial residual = 0.00180149, Final residual = 0.000173501, No Iterations 2
GAMG:  Solving for p, Initial residual = 0.00315483, Final residual = 0.000130985, No Iterations 2
time step continuity errors : sum local = 0.00056287, global = 1.21408e-05, cumulative = 0.0103238
smoothSolver:  Solving for nuTilda, Initial residual = 0.0113309, Final residual = 0.000266177, No Iterations 2
bounding nuTilda, min: -0.000151999 max: 38.5585 average: 0.388282
ExecutionTime = 17.73 s  ClockTime = 18 s

Time = 474

smoothSolver:  Solving for Ux, Initial residual = 0.000958925, Final residual = 7.82746e-05, No Iterations 2
smoothSolver:  Solving for Uy, Initial residual = 0.00179928, Final residual = 0.000173495, No Iterations 2
GAMG:  Solving for p, Initial residual = 0.00311618, Final residual = 0.000129635, No Iterations 2
time step continuity errors : sum local = 0.000564804, global = 1.19668e-05, cumulative = 0.0103357
smoothSolver:  Solving for nuTilda, Initial residual = 0.0113329, Final residual = 0.000266245, No Iterations 2
bounding nuTilda, min: -0.000279051 max: 39.4068 average: 0.396284
ExecutionTime = 17.77 s  ClockTime = 18 s

Time = 475

smoothSolver:  Solving for Ux, Initial residual = 0.000956078, Final residual = 7.8122e-05, No Iterations 2
smoothSolver:  Solving for Uy, Initial residual = 0.00179699, Final residual = 0.000173477, No Iterations 2
GAMG:  Solving for p, Initial residual = 0.0030766, Final residual = 0.000128277, No Iterations 2
time step continuity errors : sum local = 0.000566684, global = 1.17858e-05, cumulative = 0.0103475
smoothSolver:  Solving for nuTilda, Initial residual = 0.0113349, Final residual = 0.000266313, No Iterations 2
bounding nuTilda, min: -0.000130428 max: 40.2737 average: 0.404455
ExecutionTime = 17.81 s  ClockTime = 18 s

Time = 476

smoothSolver:  Solving for Ux, Initial residual = 0.000953243, Final residual = 7.79684e-05, No Iterations 2
smoothSolver:  Solving for Uy, Initial residual = 0.00179461, Final residual = 0.000173447, No Iterations 2
GAMG:  Solving for p, Initial residual = 0.00303898, Final residual = 0.000126933, No Iterations 2
time step continuity errors : sum local = 0.000568611, global = 1.1601e-05, cumulative = 0.0103591
smoothSolver:  Solving for nuTilda, Initial residual = 0.0113368, Final residual = 0.000266379, No Iterations 2
bounding nuTilda, min: -0.00011446 max: 41.1597 average: 0.412799
ExecutionTime = 17.85 s  ClockTime = 18 s

Time = 477

smoothSolver:  Solving for Ux, Initial residual = 0.000950434, Final residual = 7.78129e-05, No Iterations 2
smoothSolver:  Solving for Uy, Initial residual = 0.00179215, Final residual = 0.000173406, No Iterations 2
GAMG:  Solving for p, Initial residual = 0.00300043, Final residual = 0.000125634, No Iterations 2
time step continuity errors : sum local = 0.000570725, global = 1.14093e-05, cumulative = 0.0103705
smoothSolver:  Solving for nuTilda, Initial residual = 0.0113387, Final residual = 0.000266444, No Iterations 2
bounding nuTilda, min: -0.000207661 max: 42.0652 average: 0.42132
ExecutionTime = 17.89 s  ClockTime = 18 s

Time = 478

smoothSolver:  Solving for Ux, Initial residual = 0.000947653, Final residual = 7.76559e-05, No Iterations 2
smoothSolver:  Solving for Uy, Initial residual = 0.00178962, Final residual = 0.000173355, No Iterations 2
GAMG:  Solving for p, Initial residual = 0.00296356, Final residual = 0.000124353, No Iterations 2
time step continuity errors : sum local = 0.000572905, global = 1.12226e-05, cumulative = 0.0103817
smoothSolver:  Solving for nuTilda, Initial residual = 0.0113406, Final residual = 0.000266508, No Iterations 2
bounding nuTilda, min: -0.00045883 max: 42.9906 average: 0.430022
ExecutionTime = 17.92 s  ClockTime = 18 s

Time = 479

smoothSolver:  Solving for Ux, Initial residual = 0.000944841, Final residual = 7.74973e-05, No Iterations 2
smoothSolver:  Solving for Uy, Initial residual = 0.00178705, Final residual = 0.000173291, No Iterations 2
GAMG:  Solving for p, Initial residual = 0.0029269, Final residual = 0.000123135, No Iterations 2
time step continuity errors : sum local = 0.000575374, global = 1.10427e-05, cumulative = 0.0103928
smoothSolver:  Solving for nuTilda, Initial residual = 0.0113424, Final residual = 0.000266571, No Iterations 2
bounding nuTilda, min: -0.000645683 max: 43.9363 average: 0.438907
ExecutionTime = 17.96 s  ClockTime = 18 s

Time = 480

smoothSolver:  Solving for Ux, Initial residual = 0.000942078, Final residual = 7.73389e-05, No Iterations 2
smoothSolver:  Solving for Uy, Initial residual = 0.00178439, Final residual = 0.000173216, No Iterations 2
GAMG:  Solving for p, Initial residual = 0.0028935, Final residual = 0.000121896, No Iterations 2
time step continuity errors : sum local = 0.00057773, global = 1.08789e-05, cumulative = 0.0104037
smoothSolver:  Solving for nuTilda, Initial residual = 0.0113442, Final residual = 0.000266633, No Iterations 2
bounding nuTilda, min: -0.000217804 max: 44.9028 average: 0.447981
ExecutionTime = 18 s  ClockTime = 18 s

Time = 481

smoothSolver:  Solving for Ux, Initial residual = 0.000939285, Final residual = 7.71811e-05, No Iterations 2
smoothSolver:  Solving for Uy, Initial residual = 0.00178174, Final residual = 0.000173132, No Iterations 2
GAMG:  Solving for p, Initial residual = 0.00285739, Final residual = 0.000120595, No Iterations 2
time step continuity errors : sum local = 0.000579789, global = 1.07294e-05, cumulative = 0.0104144
smoothSolver:  Solving for nuTilda, Initial residual = 0.011346, Final residual = 0.000266694, No Iterations 2
bounding nuTilda, min: -0.000234134 max: 45.8906 average: 0.457247
ExecutionTime = 18.03 s  ClockTime = 18 s

Time = 482

smoothSolver:  Solving for Ux, Initial residual = 0.000936487, Final residual = 7.70254e-05, No Iterations 2
smoothSolver:  Solving for Uy, Initial residual = 0.00177896, Final residual = 0.000173035, No Iterations 2
GAMG:  Solving for p, Initial residual = 0.00282646, Final residual = 0.000119323, No Iterations 2
time step continuity errors : sum local = 0.000581959, global = 1.06128e-05, cumulative = 0.010425
smoothSolver:  Solving for nuTilda, Initial residual = 0.0113478, Final residual = 0.000266754, No Iterations 2
bounding nuTilda, min: -0.000260172 max: 46.9001 average: 0.46671
ExecutionTime = 18.07 s  ClockTime = 18 s

Time = 483

smoothSolver:  Solving for Ux, Initial residual = 0.000933708, Final residual = 7.68693e-05, No Iterations 2
smoothSolver:  Solving for Uy, Initial residual = 0.00177615, Final residual = 0.000172929, No Iterations 2
GAMG:  Solving for p, Initial residual = 0.0027934, Final residual = 0.000117931, No Iterations 2
time step continuity errors : sum local = 0.000583529, global = 1.05169e-05, cumulative = 0.0104355
smoothSolver:  Solving for nuTilda, Initial residual = 0.0113495, Final residual = 0.000266813, No Iterations 2
bounding nuTilda, min: -0.000349273 max: 47.9318 average: 0.476374
ExecutionTime = 18.11 s  ClockTime = 18 s

Time = 484

smoothSolver:  Solving for Ux, Initial residual = 0.000930996, Final residual = 7.67131e-05, No Iterations 2
smoothSolver:  Solving for Uy, Initial residual = 0.0017732, Final residual = 0.000172812, No Iterations 2
GAMG:  Solving for p, Initial residual = 0.00276466, Final residual = 0.000116557, No Iterations 2
time step continuity errors : sum local = 0.000585153, global = 1.04475e-05, cumulative = 0.010446
smoothSolver:  Solving for nuTilda, Initial residual = 0.0113512, Final residual = 0.000266871, No Iterations 2
bounding nuTilda, min: -0.000164263 max: 48.9861 average: 0.486242
ExecutionTime = 18.15 s  ClockTime = 18 s

Time = 485

smoothSolver:  Solving for Ux, Initial residual = 0.000928197, Final residual = 7.65562e-05, No Iterations 2
smoothSolver:  Solving for Uy, Initial residual = 0.00177026, Final residual = 0.000172686, No Iterations 2
GAMG:  Solving for p, Initial residual = 0.00273508, Final residual = 0.000115106, No Iterations 2
time step continuity errors : sum local = 0.000586361, global = 1.03926e-05, cumulative = 0.0104564
smoothSolver:  Solving for nuTilda, Initial residual = 0.0113528, Final residual = 0.000266928, No Iterations 2
bounding nuTilda, min: -8.46191e-05 max: 50.0637 average: 0.496319
ExecutionTime = 18.18 s  ClockTime = 18 s

Time = 486

smoothSolver:  Solving for Ux, Initial residual = 0.000925389, Final residual = 7.6398e-05, No Iterations 2
smoothSolver:  Solving for Uy, Initial residual = 0.00176724, Final residual = 0.000172551, No Iterations 2
GAMG:  Solving for p, Initial residual = 0.00270398, Final residual = 0.000113581, No Iterations 2
time step continuity errors : sum local = 0.000587131, global = 1.03436e-05, cumulative = 0.0104667
smoothSolver:  Solving for nuTilda, Initial residual = 0.0113545, Final residual = 0.000266984, No Iterations 2
bounding nuTilda, min: -0.00080748 max: 51.1649 average: 0.50661
ExecutionTime = 18.22 s  ClockTime = 18 s

Time = 487

smoothSolver:  Solving for Ux, Initial residual = 0.000922648, Final residual = 7.62393e-05, No Iterations 2
smoothSolver:  Solving for Uy, Initial residual = 0.00176411, Final residual = 0.000172404, No Iterations 2
GAMG:  Solving for p, Initial residual = 0.00267484, Final residual = 0.000112323, No Iterations 2
time step continuity errors : sum local = 0.000589219, global = 1.0319e-05, cumulative = 0.010477
smoothSolver:  Solving for nuTilda, Initial residual = 0.0113561, Final residual = 0.000267039, No Iterations 2
bounding nuTilda, min: -0.000363346 max: 52.2904 average: 0.517119
ExecutionTime = 18.26 s  ClockTime = 18 s

Time = 488

smoothSolver:  Solving for Ux, Initial residual = 0.00091986, Final residual = 7.60801e-05, No Iterations 2
smoothSolver:  Solving for Uy, Initial residual = 0.0017609, Final residual = 0.00017225, No Iterations 2
GAMG:  Solving for p, Initial residual = 0.00264037, Final residual = 0.000110895, No Iterations 2
time step continuity errors : sum local = 0.000590399, global = 1.02893e-05, cumulative = 0.0104873
smoothSolver:  Solving for nuTilda, Initial residual = 0.0113576, Final residual = 0.000267093, No Iterations 2
bounding nuTilda, min: -0.000276938 max: 53.4406 average: 0.527852
ExecutionTime = 18.29 s  ClockTime = 18 s

Time = 489

smoothSolver:  Solving for Ux, Initial residual = 0.000917095, Final residual = 7.59208e-05, No Iterations 2
smoothSolver:  Solving for Uy, Initial residual = 0.00175772, Final residual = 0.000172089, No Iterations 2
GAMG:  Solving for p, Initial residual = 0.00260695, Final residual = 0.000109407, No Iterations 2
time step continuity errors : sum local = 0.000591193, global = 1.02429e-05, cumulative = 0.0104976
smoothSolver:  Solving for nuTilda, Initial residual = 0.0113592, Final residual = 0.000267146, No Iterations 2
bounding nuTilda, min: -0.000165268 max: 54.6161 average: 0.538812
ExecutionTime = 18.33 s  ClockTime = 18 s

Time = 490

smoothSolver:  Solving for Ux, Initial residual = 0.000914429, Final residual = 7.57624e-05, No Iterations 2
smoothSolver:  Solving for Uy, Initial residual = 0.00175434, Final residual = 0.000171916, No Iterations 2
GAMG:  Solving for p, Initial residual = 0.00257899, Final residual = 0.000108077, No Iterations 2
time step continuity errors : sum local = 0.000592771, global = 1.01903e-05, cumulative = 0.0105077
smoothSolver:  Solving for nuTilda, Initial residual = 0.0113607, Final residual = 0.000267198, No Iterations 2
bounding nuTilda, min: -0.000385012 max: 55.8175 average: 0.550004
ExecutionTime = 18.36 s  ClockTime = 18 s

Time = 491

smoothSolver:  Solving for Ux, Initial residual = 0.000911612, Final residual = 7.5602e-05, No Iterations 2
smoothSolver:  Solving for Uy, Initial residual = 0.001751, Final residual = 0.000171736, No Iterations 2
GAMG:  Solving for p, Initial residual = 0.00254502, Final residual = 0.000106705, No Iterations 2
time step continuity errors : sum local = 0.000594087, global = 1.01046e-05, cumulative = 0.0105178
smoothSolver:  Solving for nuTilda, Initial residual = 0.0113622, Final residual = 0.00026725, No Iterations 2
bounding nuTilda, min: -0.00016871 max: 57.0452 average: 0.561435
ExecutionTime = 18.4 s  ClockTime = 18 s

Time = 492

smoothSolver:  Solving for Ux, Initial residual = 0.000908811, Final residual = 7.544e-05, No Iterations 2
smoothSolver:  Solving for Uy, Initial residual = 0.00174757, Final residual = 0.000171545, No Iterations 2
GAMG:  Solving for p, Initial residual = 0.00251126, Final residual = 0.000105313, No Iterations 2
time step continuity errors : sum local = 0.000595235, global = 9.98828e-06, cumulative = 0.0105278
smoothSolver:  Solving for nuTilda, Initial residual = 0.0113637, Final residual = 0.000267301, No Iterations 2
bounding nuTilda, min: -0.000244679 max: 58.3 average: 0.573107
ExecutionTime = 18.44 s  ClockTime = 18 s

Time = 493

smoothSolver:  Solving for Ux, Initial residual = 0.00090603, Final residual = 7.52764e-05, No Iterations 2
smoothSolver:  Solving for Uy, Initial residual = 0.00174403, Final residual = 0.000171345, No Iterations 2
GAMG:  Solving for p, Initial residual = 0.00247653, Final residual = 0.000103965, No Iterations 2
time step continuity errors : sum local = 0.000596564, global = 9.83897e-06, cumulative = 0.0105377
smoothSolver:  Solving for nuTilda, Initial residual = 0.0113652, Final residual = 0.000267351, No Iterations 2
bounding nuTilda, min: -0.000207231 max: 59.5824 average: 0.585028
ExecutionTime = 18.47 s  ClockTime = 18 s

Time = 494

smoothSolver:  Solving for Ux, Initial residual = 0.00090323, Final residual = 7.51106e-05, No Iterations 2
smoothSolver:  Solving for Uy, Initial residual = 0.0017404, Final residual = 0.000171133, No Iterations 2
GAMG:  Solving for p, Initial residual = 0.00244009, Final residual = 0.000102663, No Iterations 2
time step continuity errors : sum local = 0.000598106, global = 9.65381e-06, cumulative = 0.0105473
smoothSolver:  Solving for nuTilda, Initial residual = 0.0113666, Final residual = 0.0002674, No Iterations 2
bounding nuTilda, min: -0.000359464 max: 60.8929 average: 0.597202
ExecutionTime = 18.51 s  ClockTime = 18 s

Time = 495

smoothSolver:  Solving for Ux, Initial residual = 0.000900557, Final residual = 7.49449e-05, No Iterations 2
smoothSolver:  Solving for Uy, Initial residual = 0.00173663, Final residual = 0.000170911, No Iterations 2
GAMG:  Solving for p, Initial residual = 0.00240976, Final residual = 0.000101713, No Iterations 2
time step continuity errors : sum local = 0.000601654, global = 9.45041e-06, cumulative = 0.0105568
smoothSolver:  Solving for nuTilda, Initial residual = 0.011368, Final residual = 0.000267448, No Iterations 2
bounding nuTilda, min: -0.000540431 max: 62.2323 average: 0.609635
ExecutionTime = 18.54 s  ClockTime = 18 s

Time = 496

smoothSolver:  Solving for Ux, Initial residual = 0.000897778, Final residual = 7.47796e-05, No Iterations 2
smoothSolver:  Solving for Uy, Initial residual = 0.00173292, Final residual = 0.000170683, No Iterations 2
GAMG:  Solving for p, Initial residual = 0.00237655, Final residual = 0.000100634, No Iterations 2
time step continuity errors : sum local = 0.000604458, global = 9.22926e-06, cumulative = 0.010566
smoothSolver:  Solving for nuTilda, Initial residual = 0.0113694, Final residual = 0.000267496, No Iterations 2
bounding nuTilda, min: -0.00036067 max: 63.6011 average: 0.622332
ExecutionTime = 18.58 s  ClockTime = 19 s

Time = 497

smoothSolver:  Solving for Ux, Initial residual = 0.000895009, Final residual = 7.46144e-05, No Iterations 2
smoothSolver:  Solving for Uy, Initial residual = 0.00172918, Final residual = 0.000170448, No Iterations 2
GAMG:  Solving for p, Initial residual = 0.00234282, Final residual = 9.9424e-05, No Iterations 2
time step continuity errors : sum local = 0.000606436, global = 8.99823e-06, cumulative = 0.010575
smoothSolver:  Solving for nuTilda, Initial residual = 0.0113707, Final residual = 0.000267542, No Iterations 2
bounding nuTilda, min: -0.000354468 max: 65.0001 average: 0.635298
ExecutionTime = 18.61 s  ClockTime = 19 s

Time = 498

smoothSolver:  Solving for Ux, Initial residual = 0.000892277, Final residual = 7.44484e-05, No Iterations 2
smoothSolver:  Solving for Uy, Initial residual = 0.00172539, Final residual = 0.000170208, No Iterations 2
GAMG:  Solving for p, Initial residual = 0.00230845, Final residual = 9.81815e-05, No Iterations 2
time step continuity errors : sum local = 0.000608167, global = 8.76859e-06, cumulative = 0.0105838
smoothSolver:  Solving for nuTilda, Initial residual = 0.0113721, Final residual = 0.000267588, No Iterations 2
bounding nuTilda, min: -0.000214845 max: 66.4297 average: 0.64854
ExecutionTime = 18.65 s  ClockTime = 19 s

Time = 499

smoothSolver:  Solving for Ux, Initial residual = 0.000889539, Final residual = 7.42816e-05, No Iterations 2
smoothSolver:  Solving for Uy, Initial residual = 0.00172157, Final residual = 0.000169962, No Iterations 2
GAMG:  Solving for p, Initial residual = 0.00227457, Final residual = 9.69092e-05, No Iterations 2
time step continuity errors : sum local = 0.000609656, global = 8.54973e-06, cumulative = 0.0105923
smoothSolver:  Solving for nuTilda, Initial residual = 0.0113734, Final residual = 0.000267634, No Iterations 2
bounding nuTilda, min: -0.000661666 max: 67.8909 average: 0.662064
ExecutionTime = 18.69 s  ClockTime = 19 s

Time = 500

smoothSolver:  Solving for Ux, Initial residual = 0.000886801, Final residual = 7.4114e-05, No Iterations 2
smoothSolver:  Solving for Uy, Initial residual = 0.00171769, Final residual = 0.000169709, No Iterations 2
GAMG:  Solving for p, Initial residual = 0.00224538, Final residual = 9.56338e-05, No Iterations 2
time step continuity errors : sum local = 0.000611053, global = 8.35062e-06, cumulative = 0.0106007
smoothSolver:  Solving for nuTilda, Initial residual = 0.0113747, Final residual = 0.000267678, No Iterations 2
bounding nuTilda, min: -0.000396441 max: 69.3841 average: 0.675875
ExecutionTime = 18.81 s  ClockTime = 19 s

End

